*Heading
** Job name: dz3D Model name: Level1_08_sub
** Generated by: Abaqus/CAE 6.14-1
*Preprint, echo=NO, model=NO, history=NO, contact=NO
**
** PARTS
**
*Part, name=Part-6
*End Part
**  
**
** ASSEMBLY
**
*Assembly, name=Assembly
**  
*Instance, name=Part-6-1, part=Part-6
       4955.,           0.,           0.
       4955.,           0.,           0., 4955.5199879268, -0.519987926796701, 0.677661456233666, 111.752039978796
*Node
      1,   667.294983,    3015.1499,           0.
      2,   735.124512,   2995.83252,           0.
      3,   802.953979,   2976.51489,           0.
      4,   870.783508,   2957.19751,           0.
      5,   938.612976,   2937.87988,           0.
      6,   1017.96478,   2937.87988,           0.
      7,   1097.31653,   2937.87988,           0.
      8,   1176.66833,   2937.87988,           0.
      9,   1256.02002,   2937.87988,           0.
     10,   1335.37183,   2937.87988,           0.
     11,   1414.72351,   2937.87988,           0.
     12,   1494.07532,   2937.87988,           0.
     13,   1573.42712,   2937.87988,           0.
     14,   1652.77881,   2937.87988,           0.
     15,   1732.13062,   2937.87988,           0.
     16,   1811.48242,   2937.87988,           0.
     17,   1890.83411,   2937.87988,           0.
     18,   1970.18591,   2937.87988,           0.
     19,    2049.5376,   2937.87988,           0.
     20,    2128.8894,   2937.87988,           0.
** ... 9106 like lines cut
*Element, type=C3D8R
   1,   27,   28,    2,    1, 1041, 1042, 1016, 1015
   2,   28,   29,    3,    2, 1042, 1043, 1017, 1016
   3,   29,   30,    4,    3, 1043, 1044, 1018, 1017
   4,   30,   31,    5,    4, 1044, 1045, 1019, 1018
   5,   31,   32,    6,    5, 1045, 1046, 1020, 1019
   6,   32,   33,    7,    6, 1046, 1047, 1021, 1020
   7,   33,   34,    8,    7, 1047, 1048, 1022, 1021
   8,   34,   35,    9,    8, 1048, 1049, 1023, 1022
   9,   35,   36,   10,    9, 1049, 1050, 1024, 1023
  10,   36,   37,   11,   10, 1050, 1051, 1025, 1024
  11,   37,   38,   12,   11, 1051, 1052, 1026, 1025
  12,   38,   39,   13,   12, 1052, 1053, 1027, 1026
  13,   39,   40,   14,   13, 1053, 1054, 1028, 1027
  14,   40,   41,   15,   14, 1054, 1055, 1029, 1028
  15,   41,   42,   16,   15, 1055, 1056, 1030, 1029
  16,   42,   43,   17,   16, 1056, 1057, 1031, 1030
  17,   43,   44,   18,   17, 1057, 1058, 1032, 1031
  18,   44,   45,   19,   18, 1058, 1059, 1033, 1032
  19,   45,   46,   20,   19, 1059, 1060, 1034, 1033
  20,   46,   47,   21,   20, 1060, 1061, 1035, 1034
** ... 7580 like lines cut
*End Instance
**  
*Nset, nset=interface, instance=Part-6-1
    1,    2,    3,    4,    5,   27,   53,   79,  105,  131,  157,  183,  209,  235,  261,  287
  313,  339,  365,  391,  417,  443,  469,  495,  521,  547,  573,  599,  625,  651,  677,  703
  729,  755,  781,  807,  833,  859,  885,  911,  937,  963,  989, 1015, 1016, 1017, 1018, 1019
 1041, 1067, 1093, 1119, 1145, 1171, 1197, 1223, 1249, 1275, 1301, 1327, 1353, 1379, 1405, 1431
 1457, 1483, 1509, 1535, 1561, 1587, 1613, 1639, 1665, 1691, 1717, 1743, 1769, 1795, 1821, 1847
 1873, 1899, 1925, 1951, 1977, 2003, 2029, 2030, 2031, 2032, 2033, 2055, 2081, 2107, 2133, 2159
 2185, 2211, 2237, 2263, 2289, 2315, 2341, 2367, 2393, 2419, 2445, 2471, 2497, 2523, 2549, 2575
 2601, 2627, 2653, 2679, 2705, 2731, 2757, 2783, 2809, 2835, 2861, 2887, 2913, 2939, 2965, 2991
 3017, 3043, 3044, 3045, 3046, 3047, 3069, 3095, 3121, 3147, 3173, 3199, 3225, 3251, 3277, 3303
 3329, 3355, 3381, 3407, 3433, 3459, 3485, 3511, 3537, 3563, 3589, 3615, 3641, 3667, 3693, 3719
 3745, 3771, 3797, 3823, 3849, 3875, 3901, 3927, 3953, 3979, 4005, 4031, 4057, 4058, 4059, 4060
 4061, 4083, 4109, 4135, 4161, 4187, 4213, 4239, 4265, 4291, 4317, 4343, 4369, 4395, 4421, 4447
 4473, 4499, 4525, 4551, 4577, 4603, 4629, 4655, 4681, 4707, 4733, 4759, 4785, 4811, 4837, 4863
 4889, 4915, 4941, 4967, 4993, 5019, 5045, 5071, 5072, 5073, 5074, 5075, 5097, 5123, 5149, 5175
 5201, 5227, 5253, 5279, 5305, 5331, 5357, 5383, 5409, 5435, 5461, 5487, 5513, 5539, 5565, 5591
 5617, 5643, 5669, 5695, 5721, 5747, 5773, 5799, 5825, 5851, 5877, 5903, 5929, 5955, 5981, 6007
 6033, 6059, 6085, 6086, 6087, 6088, 6089, 6111, 6137, 6163, 6189, 6215, 6241, 6267, 6293, 6319
 6345, 6371, 6397, 6423, 6449, 6475, 6501, 6527, 6553, 6579, 6605, 6631, 6657, 6683, 6709, 6735
 6761, 6787, 6813, 6839, 6865, 6891, 6917, 6943, 6969, 6995, 7021, 7047, 7073, 7099, 7100, 7101
 7102, 7103, 7125, 7151, 7177, 7203, 7229, 7255, 7281, 7307, 7333, 7359, 7385, 7411, 7437, 7463
** ... 5 like lines cut
*Elset, elset=interface, instance=Part-6-1
    1,    2,    3,    4,   26,   51,   76,  101,  126,  151,  176,  201,  226,  251,  276,  301
  326,  351,  376,  401,  426,  451,  476,  501,  526,  551,  576,  601,  626,  651,  676,  701
  726,  751,  776,  801,  826,  851,  876,  901,  926,  951,  952,  953,  954,  976, 1001, 1026
 1051, 1076, 1101, 1126, 1151, 1176, 1201, 1226, 1251, 1276, 1301, 1326, 1351, 1376, 1401, 1426
 1451, 1476, 1501, 1526, 1551, 1576, 1601, 1626, 1651, 1676, 1701, 1726, 1751, 1776, 1801, 1826
 1851, 1876, 1901, 1902, 1903, 1904, 1926, 1951, 1976, 2001, 2026, 2051, 2076, 2101, 2126, 2151
 2176, 2201, 2226, 2251, 2276, 2301, 2326, 2351, 2376, 2401, 2426, 2451, 2476, 2501, 2526, 2551
 2576, 2601, 2626, 2651, 2676, 2701, 2726, 2751, 2776, 2801, 2826, 2851, 2852, 2853, 2854, 2876
 2901, 2926, 2951, 2976, 3001, 3026, 3051, 3076, 3101, 3126, 3151, 3176, 3201, 3226, 3251, 3276
 3301, 3326, 3351, 3376, 3401, 3426, 3451, 3476, 3501, 3526, 3551, 3576, 3601, 3626, 3651, 3676
 3701, 3726, 3751, 3776, 3801, 3802, 3803, 3804, 3826, 3851, 3876, 3901, 3926, 3951, 3976, 4001
 4026, 4051, 4076, 4101, 4126, 4151, 4176, 4201, 4226, 4251, 4276, 4301, 4326, 4351, 4376, 4401
 4426, 4451, 4476, 4501, 4526, 4551, 4576, 4601, 4626, 4651, 4676, 4701, 4726, 4751, 4752, 4753
 4754, 4776, 4801, 4826, 4851, 4876, 4901, 4926, 4951, 4976, 5001, 5026, 5051, 5076, 5101, 5126
 5151, 5176, 5201, 5226, 5251, 5276, 5301, 5326, 5351, 5376, 5401, 5426, 5451, 5476, 5501, 5526
 5551, 5576, 5601, 5626, 5651, 5676, 5701, 5702, 5703, 5704, 5726, 5751, 5776, 5801, 5826, 5851
 5876, 5901, 5926, 5951, 5976, 6001, 6026, 6051, 6076, 6101, 6126, 6151, 6176, 6201, 6226, 6251
 6276, 6301, 6326, 6351, 6376, 6401, 6426, 6451, 6476, 6501, 6526, 6551, 6576, 6601, 6626, 6651
 6652, 6653, 6654, 6676, 6701, 6726, 6751, 6776, 6801, 6826, 6851, 6876, 6901, 6926, 6951, 6976
 7001, 7026, 7051, 7076, 7101, 7126, 7151, 7176, 7201, 7226, 7251, 7276, 7301, 7326, 7351, 7376
 7401, 7426, 7451, 7476, 7501, 7526, 7551, 7576
*Surface, type=NODE, name="OGV ALL_CNS_", internal
"OGV ALL", 1.
*Surface, type=NODE, name=s_Set-172_CNS_, internal
s_Set-172, 1.
*Surface, type=NODE, name=s_Set-77_CNS_, internal
s_Set-77, 1.
*Surface, type=NODE, name="intercase slave_CNS_", internal
"intercase slave", 1.
*Surface, type=NODE, name="Roll bearing hp ip slave_CNS_", internal
"Roll bearing hp ip slave", 1.
*Surface, type=NODE, name="tail roller slave_CNS_", internal
"tail roller slave", 1.
*Surface, type=NODE, name=s_Set-26_CNS_, internal
s_Set-26, 1.
*Surface, type=NODE, name=s_Set-63_CNS_, internal
s_Set-63, 1.
*Surface, type=NODE, name=s_Set-64_CNS_, internal
s_Set-64, 1.
*Surface, type=NODE, name=s_Set-65_CNS_, internal
s_Set-65, 1.
*Surface, type=NODE, name=s_Set-66_CNS_, internal
s_Set-66, 1.
*Surface, type=NODE, name=s_Set-67_CNS_, internal
s_Set-67, 1.
*Surface, type=NODE, name=s_Set-68_CNS_, internal
s_Set-68, 1.
*Surface, type=NODE, name=s_Set-112_CNS_, internal
s_Set-112, 1.
*Surface, type=NODE, name=s_Set-114_CNS_, internal
s_Set-114, 1.
** Constraint: Constraint-1
*Tie, name=Constraint-1, adjust=no, position tolerance=1.
s_Set-172_CNS_, "OGV ALL_CNS_"
** Constraint: Constraint-2
*Tie, name=Constraint-2, adjust=no, position tolerance=1.
m_Surf-7, "OGV ALL_CNS_"
** Constraint: Constraint-4
*Coupling, constraint name=Constraint-4, ref node=m_Set-7, surface=s_Set-77_CNS_
*Kinematic
2, 2
3, 3
5, 5
6, 6
** Constraint: Constraint-5
*Coupling, constraint name=Constraint-5, ref node="INTERCASE MASTER", surface="intercase slave_CNS_"
*Kinematic
** Constraint: Constraint-6
*Coupling, constraint name=Constraint-6, ref node="hp/ip master roller bearing", surface="Roll bearing hp ip slave_CNS_"
*Kinematic
2, 2
3, 3
5, 5
6, 6
** Constraint: Constraint-7
*Coupling, constraint name=Constraint-7, ref node="tail master", surface="tail roller slave_CNS_"
*Kinematic
2, 2
3, 3
5, 5
6, 6
** Constraint: Constraint-8
*Coupling, constraint name=Constraint-8, ref node="Air intake force point", surface=s_Set-26_CNS_
*Distributing, weighting method=UNIFORM, coupling=STRUCTURAL
** Constraint: Constraint-9
*Coupling, constraint name=Constraint-9, ref node=RP-6, surface=s_Set-63_CNS_
*Distributing, weighting method=UNIFORM, coupling=STRUCTURAL
** Constraint: Constraint-10
*Coupling, constraint name=Constraint-10, ref node=m_Set-30, surface=s_Set-64_CNS_
*Distributing, weighting method=UNIFORM, coupling=STRUCTURAL
** Constraint: Constraint-11
*Coupling, constraint name=Constraint-11, ref node=m_Set-32, surface=s_Set-65_CNS_
*Distributing, weighting method=UNIFORM, coupling=STRUCTURAL
** Constraint: Constraint-12
*Coupling, constraint name=Constraint-12, ref node=m_Set-34, surface=s_Set-66_CNS_
*Distributing, weighting method=UNIFORM, coupling=STRUCTURAL
** Constraint: Constraint-13
*Coupling, constraint name=Constraint-13, ref node=m_Set-36, surface=s_Set-67_CNS_
*Distributing, weighting method=UNIFORM, coupling=STRUCTURAL
** Constraint: Constraint-14
*Coupling, constraint name=Constraint-14, ref node=m_Set-38, surface=s_Set-68_CNS_
*Distributing, weighting method=UNIFORM, coupling=STRUCTURAL
** Constraint: Constraint-16
*Coupling, constraint name=Constraint-16, ref node=m_Set-112, surface=s_Set-112_CNS_
*Distributing, weighting method=UNIFORM, coupling=STRUCTURAL
** Constraint: Constraint-17
*Coupling, constraint name=Constraint-17, ref node=m_Set-114, surface=s_Set-114_CNS_
*Distributing, weighting method=UNIFORM, coupling=STRUCTURAL
*Element, type=MASS, elset="Set-116_Mass FAN_MASS_"
*Mass, elset="Set-116_Mass FAN_MASS_"
0.657708, 
*Element, type=ROTARYI, elset="Set-116_Mass FAN_ROTI_"
*Rotary Inertia, elset="Set-116_Mass FAN_ROTI_"
2.3e+06, 1.22e+06, 1.22e+06, 0., 0., 0.
*Element, type=MASS, elset="Set-117_Mass torque box_MASS_"
*Mass, elset="Set-117_Mass torque box_MASS_"
0.328854, 
*Element, type=ROTARYI, elset="Set-117_Mass torque box_ROTI_"
*Rotary Inertia, elset="Set-117_Mass torque box_ROTI_"
320000., 197000., 197000., 0., 0., 0.
*End Assembly
** 
** MATERIALS
** 
*Material, name=INCONEL
*Density
 7.8e-09,
*Elastic
210000., 0.29
*Material, name=Titanium
*Density
 4.507e-09,
*Elastic
110000., 0.31
** ----------------------------------------------------------------
** 
** STEP: Step-1
** 
*Step, name=Step-1, nlgeom=NO, perturbation
*Frequency, eigensolver=Lanczos, acoustic coupling=on, normalization=displacement
, , 50., , , 
** 
** OUTPUT REQUESTS
** 
*Restart, write, frequency=0
** 
** FIELD OUTPUT: F-Output-1
** 
*Output, field, variable=PRESELECT
*End Step
