1

   Abaqus 6.14-1                                  Date 23-mars-2017   Time 10:43:25
   For use at INSA TOULOUSE under license from Dassault Systemes or its subsidiary.



                         The Abaqus Software is a product of:

                           Dassault Systemes Simulia Corp.
                                 Rising Sun Mills
                                 166 Valley Street
                           Providence, RI 02909-2499, USA
 


                   Available for internal use at INSA TOULOUSE. 
                   The Abaqus Online Support System is accessible
                   through the "My Support" section of the SIMULIA
                   Home Page at http://www.simulia.com.

                   Support policies for academic licenses are described
                   on the SIMULIA web site at
                   http://www.3ds.com/products/simulia/academics/
 
                          On machine DMSME-CONIGLIO 
                          you are authorized to run
                          Abaqus/Standard until 31-Dec-2017

                          Your site id is: 200000000023279 


 
                    For assistance or any other information you may
                    obtain contact information for your local office
                    from the world wide web at:

                      http://www.3ds.com/products/simulia/locations/

 
                * * * * * * * * * * * * * * * * * * * * * * * * * * * * * * 
                *                                                         * 
                *                   *****************                     * 
                *                   *  N O T I C E  *                     * 
                *                   *****************                     * 
                *                                                         * 
                *                                                         * 
                *                    Abaqus 6.14-1                        * 
                *                                                         * 
                *          BUILD ID: 2014_06_05-00.11.02 134264           * 
                *                                                         * 
                *                                                         * 
                *  Please make sure you are using release 6.14 manuals    * 
                *  plus the notes accompanying this release.              * 
                *                                                         * 
                *                                                         * 
                *                                                         * 
                *                                                         * 
                *                                                         * 
                *   This program may not be used for commercial purposes  * 
                *           without payment of a commercial fee.          * 
                *                                                         * 
                * * * * * * * * * * * * * * * * * * * * * * * * * * * * * * 


 



     PROCESSING PART, INSTANCE, AND ASSEMBLY INFORMATION
   *******************************************************


     END PROCESSING PART, INSTANCE, AND ASSEMBLY INFORMATION
   ***********************************************************




     OPTIONS BEING PROCESSED
   ***************************


  *Heading
  *System
  *Node
  *Element, type=S4R
  *Nset, nset="FAN casing-1_Set-1", generate
  *Elset, elset="FAN casing-1_Set-1", generate
  *System
  *Node
  *Element, type=B31
  *Nset, nset=ROTOR-1_Set-1, generate
  *Elset, elset=ROTOR-1_Set-1, generate
  *Nset, nset=ROTOR-1_Set-2, generate
  *Elset, elset=ROTOR-1_Set-2, generate
  *System
  *Node
  *Element, type=B31
  *Nset, nset=OGV-1_Set-1, generate
  *Elset, elset=OGV-1_Set-1, generate
  *Nset, nset=OGV-1_Set-2, generate
  *Elset, elset=OGV-1_Set-2, generate
  *System
  *Node
  *Element, type=B31
  *Nset, nset=OGV-1-rad-2_Set-1, generate
  *Elset, elset=OGV-1-rad-2_Set-1, generate
  *Nset, nset=OGV-1-rad-2_Set-2, generate
  *Elset, elset=OGV-1-rad-2_Set-2, generate
  *System
  *Node
  *Element, type=B31
  *Nset, nset=OGV-1-rad-3_Set-1, generate
  *Elset, elset=OGV-1-rad-3_Set-1, generate
  *Nset, nset=OGV-1-rad-3_Set-2, generate
  *Elset, elset=OGV-1-rad-3_Set-2, generate
  *System
  *Node
  *Element, type=B31
  *Nset, nset=OGV-1-rad-4_Set-1, generate
  *Elset, elset=OGV-1-rad-4_Set-1, generate
  *Nset, nset=OGV-1-rad-4_Set-2, generate
  *Elset, elset=OGV-1-rad-4_Set-2, generate
  *System
  *Node
  *Element, type=B31
  *Nset, nset=OGV-1-rad-5_Set-1, generate
  *Elset, elset=OGV-1-rad-5_Set-1, generate
  *Nset, nset=OGV-1-rad-5_Set-2, generate
  *Elset, elset=OGV-1-rad-5_Set-2, generate
  *System
  *Node
  *Element, type=B31
  *Nset, nset=OGV-1-rad-6_Set-1, generate
  *Elset, elset=OGV-1-rad-6_Set-1, generate
  *Nset, nset=OGV-1-rad-6_Set-2, generate
  *Elset, elset=OGV-1-rad-6_Set-2, generate
  *System
  *Node
  *Element, type=B31
  *Nset, nset=OGV-1-rad-7_Set-1, generate
  *Elset, elset=OGV-1-rad-7_Set-1, generate
  *Nset, nset=OGV-1-rad-7_Set-2, generate
  *Elset, elset=OGV-1-rad-7_Set-2, generate
  *System
  *Node
  *Element, type=B31
  *Nset, nset=OGV-1-rad-8_Set-1, generate
  *Elset, elset=OGV-1-rad-8_Set-1, generate
  *Nset, nset=OGV-1-rad-8_Set-2, generate
  *Elset, elset=OGV-1-rad-8_Set-2, generate
  *System
  *Node
  *Element, type=B31
  *Nset, nset=OGV-1-rad-9_Set-1, generate
  *Elset, elset=OGV-1-rad-9_Set-1, generate
  *Nset, nset=OGV-1-rad-9_Set-2, generate
  *Elset, elset=OGV-1-rad-9_Set-2, generate
  *System
  *Node
  *Element, type=B31
  *Nset, nset=OGV-1-rad-10_Set-1, generate
  *Elset, elset=OGV-1-rad-10_Set-1, generate
  *Nset, nset=OGV-1-rad-10_Set-2, generate
  *Elset, elset=OGV-1-rad-10_Set-2, generate
  *System
  *Node
  *Element, type=B31
  *Nset, nset=OGV-1-rad-11_Set-1, generate
  *Elset, elset=OGV-1-rad-11_Set-1, generate
  *Nset, nset=OGV-1-rad-11_Set-2, generate
  *Elset, elset=OGV-1-rad-11_Set-2, generate
  *System
  *Node
  *Element, type=B31
  *Nset, nset=OGV-1-rad-12_Set-1, generate
  *Elset, elset=OGV-1-rad-12_Set-1, generate
  *Nset, nset=OGV-1-rad-12_Set-2, generate
  *Elset, elset=OGV-1-rad-12_Set-2, generate
  *System
  *Node
  *Element, type=B31
  *Nset, nset=OGV-1-rad-13_Set-1, generate
  *Elset, elset=OGV-1-rad-13_Set-1, generate
  *Nset, nset=OGV-1-rad-13_Set-2, generate
  *Elset, elset=OGV-1-rad-13_Set-2, generate
  *System
  *Node
  *Element, type=B31
  *Nset, nset=OGV-1-rad-14_Set-1, generate
  *Elset, elset=OGV-1-rad-14_Set-1, generate
  *Nset, nset=OGV-1-rad-14_Set-2, generate
  *Elset, elset=OGV-1-rad-14_Set-2, generate
  *System
  *Node
  *Element, type=B31
  *Nset, nset=OGV-1-rad-15_Set-1, generate
  *Elset, elset=OGV-1-rad-15_Set-1, generate
  *Nset, nset=OGV-1-rad-15_Set-2, generate
  *Elset, elset=OGV-1-rad-15_Set-2, generate
  *System
  *Node
  *Element, type=B31
  *Nset, nset=OGV-1-rad-16_Set-1, generate
  *Elset, elset=OGV-1-rad-16_Set-1, generate
  *Nset, nset=OGV-1-rad-16_Set-2, generate
  *Elset, elset=OGV-1-rad-16_Set-2, generate
  *System
  *Node
  *Element, type=B31
  *Nset, nset=OGV-1-rad-17_Set-1, generate
  *Elset, elset=OGV-1-rad-17_Set-1, generate
  *Nset, nset=OGV-1-rad-17_Set-2, generate
  *Elset, elset=OGV-1-rad-17_Set-2, generate
  *System
  *Node
  *Element, type=B31
  *Nset, nset=OGV-1-rad-18_Set-1, generate
  *Elset, elset=OGV-1-rad-18_Set-1, generate
  *Nset, nset=OGV-1-rad-18_Set-2, generate
  *Elset, elset=OGV-1-rad-18_Set-2, generate
  *System
  *Node
  *Element, type=B31
  *Nset, nset=OGV-1-rad-19_Set-1, generate
  *Elset, elset=OGV-1-rad-19_Set-1, generate
  *Nset, nset=OGV-1-rad-19_Set-2, generate
  *Elset, elset=OGV-1-rad-19_Set-2, generate
  *System
  *Node
  *Element, type=B31
  *Nset, nset=OGV-1-rad-20_Set-1, generate
  *Elset, elset=OGV-1-rad-20_Set-1, generate
  *Nset, nset=OGV-1-rad-20_Set-2, generate
  *Elset, elset=OGV-1-rad-20_Set-2, generate
  *System
  *Node
  *Element, type=B31
  *Nset, nset=OGV-1-rad-21_Set-1, generate
  *Elset, elset=OGV-1-rad-21_Set-1, generate
  *Nset, nset=OGV-1-rad-21_Set-2, generate
  *Elset, elset=OGV-1-rad-21_Set-2, generate
  *System
  *Node
  *Element, type=B31
  *Nset, nset=OGV-1-rad-22_Set-1, generate
  *Elset, elset=OGV-1-rad-22_Set-1, generate
  *Nset, nset=OGV-1-rad-22_Set-2, generate
  *Elset, elset=OGV-1-rad-22_Set-2, generate
  *System
  *Node
  *Element, type=B31
  *Nset, nset=OGV-1-rad-23_Set-1, generate
  *Elset, elset=OGV-1-rad-23_Set-1, generate
  *Nset, nset=OGV-1-rad-23_Set-2, generate
  *Elset, elset=OGV-1-rad-23_Set-2, generate
  *System
  *Node
  *Element, type=B31
  *Nset, nset=OGV-1-rad-24_Set-1, generate
  *Elset, elset=OGV-1-rad-24_Set-1, generate
  *Nset, nset=OGV-1-rad-24_Set-2, generate
  *Elset, elset=OGV-1-rad-24_Set-2, generate
  *System
  *Node
  *Element, type=B31
  *Nset, nset=OGV-1-rad-25_Set-1, generate
  *Elset, elset=OGV-1-rad-25_Set-1, generate
  *Nset, nset=OGV-1-rad-25_Set-2, generate
  *Elset, elset=OGV-1-rad-25_Set-2, generate
  *System
  *Node
  *Element, type=B31
  *Nset, nset=OGV-1-rad-26_Set-1, generate
  *Elset, elset=OGV-1-rad-26_Set-1, generate
  *Nset, nset=OGV-1-rad-26_Set-2, generate
  *Elset, elset=OGV-1-rad-26_Set-2, generate
  *System
  *Node
  *Element, type=B31
  *Nset, nset=OGV-1-rad-27_Set-1, generate
  *Elset, elset=OGV-1-rad-27_Set-1, generate
  *Nset, nset=OGV-1-rad-27_Set-2, generate
  *Elset, elset=OGV-1-rad-27_Set-2, generate
  *System
  *Node
  *Element, type=B31
  *Nset, nset=OGV-1-rad-28_Set-1, generate
  *Elset, elset=OGV-1-rad-28_Set-1, generate
  *Nset, nset=OGV-1-rad-28_Set-2, generate
  *Elset, elset=OGV-1-rad-28_Set-2, generate
  *System
  *Node
  *Element, type=B31
  *Nset, nset=OGV-1-rad-29_Set-1, generate
  *Elset, elset=OGV-1-rad-29_Set-1, generate
  *Nset, nset=OGV-1-rad-29_Set-2, generate
  *Elset, elset=OGV-1-rad-29_Set-2, generate
  *System
  *Node
  *Element, type=B31
  *Nset, nset=OGV-1-rad-30_Set-1, generate
  *Elset, elset=OGV-1-rad-30_Set-1, generate
  *Nset, nset=OGV-1-rad-30_Set-2, generate
  *Elset, elset=OGV-1-rad-30_Set-2, generate
  *System
  *Node
  *Element, type=B31
  *Nset, nset=OGV-1-rad-31_Set-1, generate
  *Elset, elset=OGV-1-rad-31_Set-1, generate
  *Nset, nset=OGV-1-rad-31_Set-2, generate
  *Elset, elset=OGV-1-rad-31_Set-2, generate
  *System
  *Node
  *Element, type=B31
  *Nset, nset=OGV-1-rad-32_Set-1, generate
  *Elset, elset=OGV-1-rad-32_Set-1, generate
  *Nset, nset=OGV-1-rad-32_Set-2, generate
  *Elset, elset=OGV-1-rad-32_Set-2, generate
  *System
  *Node
  *Element, type=B31
  *Nset, nset=OGV-1-rad-33_Set-1, generate
  *Elset, elset=OGV-1-rad-33_Set-1, generate
  *Nset, nset=OGV-1-rad-33_Set-2, generate
  *Elset, elset=OGV-1-rad-33_Set-2, generate
  *System
  *Node
  *Element, type=B31
  *Nset, nset=OGV-1-rad-34_Set-1, generate
  *Elset, elset=OGV-1-rad-34_Set-1, generate
  *Nset, nset=OGV-1-rad-34_Set-2, generate
  *Elset, elset=OGV-1-rad-34_Set-2, generate
  *System
  *Node
  *Element, type=B31
  *Nset, nset=OGV-1-rad-35_Set-1, generate
  *Elset, elset=OGV-1-rad-35_Set-1, generate
  *Nset, nset=OGV-1-rad-35_Set-2, generate
  *Elset, elset=OGV-1-rad-35_Set-2, generate
  *System
  *Node
  *Element, type=B31
  *Nset, nset=OGV-1-rad-36_Set-1, generate
  *Elset, elset=OGV-1-rad-36_Set-1, generate
  *Nset, nset=OGV-1-rad-36_Set-2, generate
  *Elset, elset=OGV-1-rad-36_Set-2, generate
  *System
  *Node
  *Element, type=B31
  *Nset, nset=OGV-1-rad-37_Set-1, generate
  *Elset, elset=OGV-1-rad-37_Set-1, generate
  *Nset, nset=OGV-1-rad-37_Set-2, generate
  *Elset, elset=OGV-1-rad-37_Set-2, generate
  *System
  *Node
  *Element, type=B31
  *Nset, nset=OGV-1-rad-38_Set-1, generate
  *Elset, elset=OGV-1-rad-38_Set-1, generate
  *Nset, nset=OGV-1-rad-38_Set-2, generate
  *Elset, elset=OGV-1-rad-38_Set-2, generate
  *System
  *Node
  *Element, type=B31
  *Nset, nset=OGV-1-rad-39_Set-1, generate
  *Elset, elset=OGV-1-rad-39_Set-1, generate
  *Nset, nset=OGV-1-rad-39_Set-2, generate
  *Elset, elset=OGV-1-rad-39_Set-2, generate
  *System
  *Node
  *Element, type=B31
  *Nset, nset=OGV-1-rad-40_Set-1, generate
  *Elset, elset=OGV-1-rad-40_Set-1, generate
  *Nset, nset=OGV-1-rad-40_Set-2, generate
  *Elset, elset=OGV-1-rad-40_Set-2, generate
  *System
  *Node
  *Element, type=S4R
  *Nset, nset=core-casing-1_Set-1
  *Elset, elset=core-casing-1_Set-1
  *Nset, nset=core-casing-1_Set-2
  *Elset, elset=core-casing-1_Set-2
  *Nset, nset=core-casing-1_Set-3
  *Elset, elset=core-casing-1_Set-3
  *Nset, nset=core-casing-1_Set-4
  *Elset, elset=core-casing-1_Set-4
  *Nset, nset=core-casing-1_Set-6
  *Elset, elset=core-casing-1_Set-6
  *Nset, nset=core-casing-1_Set-7
  *Elset, elset=core-casing-1_Set-7
  *Elset, elset=core-casing-1__I3
  *System
  *Node
  *Node
  *Node
  *Node
  *Node
  *Node
  *Node

 ***NOTE: DUE TO EXCESSIVE REPORTING, THE ECHO OF THE *NODE OPTION IS BEING 
          SUPPRESSED.
  *Nset, nset="Air intake force point"
  *Nset, nset="FAN CASING"
  *Elset, elset="FAN CASING"
  *Nset, nset="FAN CENTER"
  *Nset, nset="HPC1 CASING"
  *Elset, elset="HPC1 CASING"
  *Nset, nset="HPC1 CENTER"
  *Nset, nset="HPC2 CASING"
  *Elset, elset="HPC2 CASING"
  *Nset, nset="HPC2 CENTER"
  *Nset, nset="HPC3 CASING"
  *Elset, elset="HPC3 CASING"
  *Nset, nset="HPC3 CENTER"
  *Nset, nset="HPC4 CASING"
  *Elset, elset="HPC4 CASING"
  *Nset, nset="HPC4 CENTER"
  *Nset, nset="HPC5 CASING"
  *Elset, elset="HPC5 CASING"
  *Nset, nset="HPC5 CENTER"
  *Nset, nset="HPC6 CASING"
  *Elset, elset="HPC6 CASING"
  *Nset, nset="HPC6 CENTER"
  *Nset, nset="HPC7 CASING"
  *Elset, elset="HPC7 CASING"
  *Nset, nset="HPC7 CENTER"
  *Nset, nset="HPC8 CASING"
  *Elset, elset="HPC8 CASING"
  *Nset, nset="HPC8 CENTER"
  *Nset, nset="HPC9 CASING"
  *Elset, elset="HPC9 CASING"
  *Nset, nset="HPC9 CENTER"
  *Nset, nset="HPC10 CASING"
  *Elset, elset="HPC10 CASING"
  *Nset, nset="HPC10 CENTER"
  *Nset, nset="HPT1 CASING"
  *Elset, elset="HPT1 CASING"
  *Nset, nset="HPT1 CENTER"
  *Nset, nset="HPT2 CASING"
  *Elset, elset="HPT2 CASING"
  *Nset, nset="HPT2 CENTER"
  *Nset, nset="INTERCASE MASTER"
  *Nset, nset="IPC1 CASING"
  *Elset, elset="IPC1 CASING"
  *Nset, nset="IPC1 CENTER"
  *Nset, nset="IPC2 CASING"
  *Elset, elset="IPC2 CASING"
  *Nset, nset="IPC2 CENTER"
  *Nset, nset="IPC3 CASING"
  *Elset, elset="IPC3 CASING"
  *Nset, nset="IPC3 CENTER"
  *Nset, nset="IPT1 CASING"
  *Elset, elset="IPT1 CASING"
  *Nset, nset="IPT1 CENTER"
  *Nset, nset="IPT2 CASING"
  *Elset, elset="IPT2 CASING"
  *Nset, nset="IPT2 CENTER"
  *Nset, nset="IPT3 CASING"
  *Elset, elset="IPT3 CASING"
  *Nset, nset="IPT3 CENTER"
  *Nset, nset="IPT4 CASING"
  *Elset, elset="IPT4 CASING"
  *Nset, nset="IPT4 CENTER"
  *Nset, nset="OGV ALL", generate
  *Nset, nset="OGV ALL", generate
  *Nset, nset="OGV ALL", generate
  *Nset, nset="OGV ALL", generate
  *Nset, nset="OGV ALL", generate
  *Nset, nset="OGV ALL", generate
  *Nset, nset="OGV ALL", generate
  *Nset, nset="OGV ALL", generate
  *Nset, nset="OGV ALL", generate
  *Nset, nset="OGV ALL", generate
  *Nset, nset="OGV ALL", generate
  *Nset, nset="OGV ALL", generate
  *Nset, nset="OGV ALL", generate
  *Nset, nset="OGV ALL", generate
  *Nset, nset="OGV ALL", generate
  *Nset, nset="OGV ALL", generate
  *Nset, nset="OGV ALL", generate
  *Nset, nset="OGV ALL", generate
  *Nset, nset="OGV ALL", generate
  *Nset, nset="OGV ALL", generate
  *Nset, nset="OGV ALL", generate
  *Nset, nset="OGV ALL", generate
  *Nset, nset="OGV ALL", generate
  *Nset, nset="OGV ALL", generate
  *Nset, nset="OGV ALL", generate
  *Nset, nset="OGV ALL", generate
  *Nset, nset="OGV ALL", generate
  *Nset, nset="OGV ALL", generate
  *Nset, nset="OGV ALL", generate
  *Nset, nset="OGV ALL", generate
  *Nset, nset="OGV ALL", generate
  *Nset, nset="OGV ALL", generate
  *Nset, nset="OGV ALL", generate
  *Nset, nset="OGV ALL", generate
  *Nset, nset="OGV ALL", generate
  *Nset, nset="OGV ALL", generate
  *Nset, nset="OGV ALL", generate
  *Nset, nset="OGV ALL", generate
  *Nset, nset="OGV ALL", generate
  *Nset, nset="OGV ALL", generate
  *Elset, elset="OGV ALL", generate
  *Elset, elset="OGV ALL", generate
  *Elset, elset="OGV ALL", generate
  *Elset, elset="OGV ALL", generate
  *Elset, elset="OGV ALL", generate
  *Elset, elset="OGV ALL", generate
  *Elset, elset="OGV ALL", generate
  *Elset, elset="OGV ALL", generate
  *Elset, elset="OGV ALL", generate
  *Elset, elset="OGV ALL", generate
  *Elset, elset="OGV ALL", generate
  *Elset, elset="OGV ALL", generate
  *Elset, elset="OGV ALL", generate
  *Elset, elset="OGV ALL", generate
  *Elset, elset="OGV ALL", generate
  *Elset, elset="OGV ALL", generate
  *Elset, elset="OGV ALL", generate
  *Elset, elset="OGV ALL", generate
  *Elset, elset="OGV ALL", generate
  *Elset, elset="OGV ALL", generate
  *Elset, elset="OGV ALL", generate
  *Elset, elset="OGV ALL", generate
  *Elset, elset="OGV ALL", generate
  *Elset, elset="OGV ALL", generate
  *Elset, elset="OGV ALL", generate
  *Elset, elset="OGV ALL", generate
  *Elset, elset="OGV ALL", generate
  *Elset, elset="OGV ALL", generate
  *Elset, elset="OGV ALL", generate
  *Elset, elset="OGV ALL", generate
  *Elset, elset="OGV ALL", generate
  *Elset, elset="OGV ALL", generate
  *Elset, elset="OGV ALL", generate
  *Elset, elset="OGV ALL", generate
  *Elset, elset="OGV ALL", generate
  *Elset, elset="OGV ALL", generate
  *Elset, elset="OGV ALL", generate
  *Elset, elset="OGV ALL", generate
  *Elset, elset="OGV ALL", generate
  *Elset, elset="OGV ALL", generate
  *Nset, nset=RP-6
  *Nset, nset="Roll bearing hp ip slave"
  *Elset, elset="Roll bearing hp ip slave"
  *Nset, nset=Set-40
  *Nset, nset=Set-41
  *Nset, nset=Set-42
  *Nset, nset=Set-43
  *Nset, nset=Set-44
  *Nset, nset=Set-45
  *Nset, nset=Set-46
  *Nset, nset=Set-47
  *Nset, nset=Set-48
  *Nset, nset=Set-50
  *Nset, nset=Set-116
  *Nset, nset=Set-117
  *Nset, nset=Set-121
  *Nset, nset=Set-122
  *Nset, nset=Set-123
  *Nset, nset=Set-161
  *Nset, nset=Set-163
  *Nset, nset=Set-164
  *Nset, nset=Set-165
  *Nset, nset=Set-168
  *Nset, nset="hp/ip master roller bearing"
  *Nset, nset="intercase slave"
  *Nset, nset="intercase slave"
  *Elset, elset="intercase slave"
  *Nset, nset=interface
  *Elset, elset=interface
  *Nset, nset=interface_full
  *Elset, elset=interface_full
  *Nset, nset=m_Set-2
  *Nset, nset=m_Set-7
  *Nset, nset=m_Set-30
  *Nset, nset=m_Set-32
  *Nset, nset=m_Set-34
  *Nset, nset=m_Set-36
  *Nset, nset=m_Set-38
  *Nset, nset=m_Set-112
  *Nset, nset=m_Set-114
  *Nset, nset=m_Set-118
  *Nset, nset=m_Set-119
  *Nset, nset=m_Set-120
  *Nset, nset=m_Set-147
  *Nset, nset=m_Set-148
  *Nset, nset=m_Set-149
  *Nset, nset=m_Set-150
  *Nset, nset=m_Set-151
  *Nset, nset=m_Set-152
  *Nset, nset=m_Set-159
  *Nset, nset=m_Set-166
  *Nset, nset=output_tip
  *Nset, nset=output_tip
  *Nset, nset=output_tip
  *Elset, elset=output_tip
  *Elset, elset=output_tip
  *Nset, nset=s_Set-1, generate
  *Nset, nset=s_Set-1, generate
  *Nset, nset=s_Set-1, generate
  *Nset, nset=s_Set-1, generate
  *Nset, nset=s_Set-1, generate
  *Nset, nset=s_Set-1, generate
  *Nset, nset=s_Set-1, generate
  *Nset, nset=s_Set-1, generate
  *Nset, nset=s_Set-1, generate
  *Nset, nset=s_Set-1, generate
  *Nset, nset=s_Set-1, generate
  *Nset, nset=s_Set-1, generate
  *Nset, nset=s_Set-1, generate
  *Nset, nset=s_Set-1, generate
  *Nset, nset=s_Set-1, generate
  *Nset, nset=s_Set-1, generate
  *Nset, nset=s_Set-1, generate
  *Nset, nset=s_Set-1, generate
  *Nset, nset=s_Set-1, generate
  *Nset, nset=s_Set-1, generate
  *Nset, nset=s_Set-1, generate
  *Nset, nset=s_Set-1, generate
  *Nset, nset=s_Set-1, generate
  *Nset, nset=s_Set-1, generate
  *Nset, nset=s_Set-1, generate
  *Nset, nset=s_Set-1, generate
  *Nset, nset=s_Set-1, generate
  *Nset, nset=s_Set-1, generate
  *Nset, nset=s_Set-1, generate
  *Nset, nset=s_Set-1, generate
  *Nset, nset=s_Set-1, generate
  *Nset, nset=s_Set-1, generate
  *Nset, nset=s_Set-1, generate
  *Nset, nset=s_Set-1, generate
  *Nset, nset=s_Set-1, generate
  *Nset, nset=s_Set-1, generate
  *Nset, nset=s_Set-1, generate
  *Nset, nset=s_Set-1, generate
  *Nset, nset=s_Set-1, generate
  *Nset, nset=s_Set-1, generate
  *Elset, elset=s_Set-1, generate
  *Elset, elset=s_Set-1, generate
  *Elset, elset=s_Set-1, generate
  *Elset, elset=s_Set-1, generate
  *Elset, elset=s_Set-1, generate
  *Elset, elset=s_Set-1, generate
  *Elset, elset=s_Set-1, generate
  *Elset, elset=s_Set-1, generate
  *Elset, elset=s_Set-1, generate
  *Elset, elset=s_Set-1, generate
  *Elset, elset=s_Set-1, generate
  *Elset, elset=s_Set-1, generate
  *Elset, elset=s_Set-1, generate
  *Elset, elset=s_Set-1, generate
  *Elset, elset=s_Set-1, generate
  *Elset, elset=s_Set-1, generate
  *Elset, elset=s_Set-1, generate
  *Elset, elset=s_Set-1, generate
  *Elset, elset=s_Set-1, generate
  *Elset, elset=s_Set-1, generate
  *Elset, elset=s_Set-1, generate
  *Elset, elset=s_Set-1, generate
  *Elset, elset=s_Set-1, generate
  *Elset, elset=s_Set-1, generate
  *Elset, elset=s_Set-1, generate
  *Elset, elset=s_Set-1, generate
  *Elset, elset=s_Set-1, generate
  *Elset, elset=s_Set-1, generate
  *Elset, elset=s_Set-1, generate
  *Elset, elset=s_Set-1, generate
  *Elset, elset=s_Set-1, generate
  *Elset, elset=s_Set-1, generate
  *Elset, elset=s_Set-1, generate
  *Elset, elset=s_Set-1, generate
  *Elset, elset=s_Set-1, generate
  *Elset, elset=s_Set-1, generate
  *Elset, elset=s_Set-1, generate
  *Elset, elset=s_Set-1, generate
  *Elset, elset=s_Set-1, generate
  *Elset, elset=s_Set-1, generate
  *Nset, nset=s_Set-26
  *Elset, elset=s_Set-26
  *Nset, nset=s_Set-63
  *Elset, elset=s_Set-63
  *Nset, nset=s_Set-64
  *Elset, elset=s_Set-64
  *Nset, nset=s_Set-65
  *Elset, elset=s_Set-65
  *Nset, nset=s_Set-66
  *Elset, elset=s_Set-66
  *Nset, nset=s_Set-67
  *Elset, elset=s_Set-67
  *Nset, nset=s_Set-68
  *Elset, elset=s_Set-68
  *Nset, nset=s_Set-77
  *Elset, elset=s_Set-77
  *Nset, nset=s_Set-112
  *Elset, elset=s_Set-112
  *Nset, nset=s_Set-114
  *Elset, elset=s_Set-114
  *Nset, nset=s_Set-172
  *Elset, elset=s_Set-172
  *Nset, nset=s_Set-173
  *Elset, elset=s_Set-173
  *Nset, nset=s_Set-176
  *Elset, elset=s_Set-176
  *Nset, nset="tail master"
  *Nset, nset="tail roller slave"
  *Nset, nset="tail roller slave", generate
  *Elset, elset="tail roller slave"
  *Nset, nset="thrust casing distribution"
  *Elset, elset="thrust casing distribution"
  *Elset, elset=_m_Surf-1_SPOS
  *Elset, elset=_m_Surf-7_SPOS
  *Elset, elset=_m_Surf-8_, generate
  *Elset, elset=_m_Surf-8_SNEG
  *Elset, elset=_s_Surf-5_SNEG
  *Elset, elset=_s_Surf-7_SNEG
  *Elset, elset=_s_Surf-8_SNEG
  *Elset, elset=_s_Surf-9_SNEG
  *Element, type=MASS, elset="Set-116_Mass FAN_MASS_"
  *Element, type=ROTARYI, elset="Set-116_Mass FAN_ROTI_"
  *Element, type=MASS, elset="Set-117_Mass torque box_MASS_"
  *Element, type=ROTARYI, elset="Set-117_Mass torque box_ROTI_"
  *Tie, name=Constraint-1, adjust=no, position tolerance=1.
  *Tie, name=Constraint-2, adjust=no, position tolerance=1.
  *Surface, type=ELEMENT, name=m_Surf-1
  *Surface, type=ELEMENT, name=m_Surf-7
  *Surface, type=ELEMENT, name=m_Surf-8
  *Surface, type=ELEMENT, name=s_Surf-5
  *Surface, type=ELEMENT, name=s_Surf-7
  *Surface, type=ELEMENT, name=s_Surf-8
  *Surface, type=ELEMENT, name=s_Surf-9
  *Surface, type=NODE, name="OGV ALL_CNS_"
  *Surface, type=NODE, name=s_Set-172_CNS_
  *Surface, type=NODE, name=s_Set-77_CNS_
  *Surface, type=NODE, name="intercase slave_CNS_"
  *Surface, type=NODE, name="Roll bearing hp ip slave_CNS_"
  *Surface, type=NODE, name="tail roller slave_CNS_"
  *Surface, type=NODE, name=s_Set-26_CNS_
  *Surface, type=NODE, name=s_Set-63_CNS_
  *Surface, type=NODE, name=s_Set-64_CNS_
  *Surface, type=NODE, name=s_Set-65_CNS_
  *Surface, type=NODE, name=s_Set-66_CNS_
  *Surface, type=NODE, name=s_Set-67_CNS_
  *Surface, type=NODE, name=s_Set-68_CNS_
  *Surface, type=NODE, name=s_Set-112_CNS_
  *Surface, type=NODE, name=s_Set-114_CNS_
  *Tie, name=Constraint-1, adjust=no, position tolerance=1.
  *Tie, name=Constraint-2, adjust=no, position tolerance=1.
  *Surface, type=ELEMENT, name=m_Surf-1
  *Surface, type=ELEMENT, name=m_Surf-7
  *Surface, type=ELEMENT, name=m_Surf-8
  *Surface, type=ELEMENT, name=s_Surf-5
  *Surface, type=ELEMENT, name=s_Surf-7
  *Surface, type=ELEMENT, name=s_Surf-8

 ***NOTE: DUE TO EXCESSIVE REPORTING, THE ECHO OF THE *SURFACE OPTION IS BEING 
          SUPPRESSED.
  *Tie, name=Constraint-1, adjust=no, position tolerance=1.
  *Tie, name=Constraint-2, adjust=no, position tolerance=1.
  *Coupling, constraint name=Constraint-4, ref node=m_Set-7, surface=s_Set-77_CNS_
  *Coupling, constraint name=Constraint-5, ref node="INTERCASE MASTER", surface="intercase slave_CNS_"
  *Coupling, constraint name=Constraint-6, ref node="hp/ip master roller bearing", surface="Roll bearing hp ip slave_CNS_"
  *Coupling, constraint name=Constraint-7, ref node="tail master", surface="tail roller slave_CNS_"
  *Coupling, constraint name=Constraint-8, ref node="Air intake force point", surface=s_Set-26_CNS_
  *Coupling, constraint name=Constraint-9, ref node=RP-6, surface=s_Set-63_CNS_
  *Coupling, constraint name=Constraint-10, ref node=m_Set-30, surface=s_Set-64_CNS_
  *Coupling, constraint name=Constraint-11, ref node=m_Set-32, surface=s_Set-65_CNS_
  *Coupling, constraint name=Constraint-12, ref node=m_Set-34, surface=s_Set-66_CNS_
  *Coupling, constraint name=Constraint-13, ref node=m_Set-36, surface=s_Set-67_CNS_
  *Coupling, constraint name=Constraint-14, ref node=m_Set-38, surface=s_Set-68_CNS_
  *Coupling, constraint name=Constraint-16, ref node=m_Set-112, surface=s_Set-112_CNS_
  *Coupling, constraint name=Constraint-17, ref node=m_Set-114, surface=s_Set-114_CNS_
  *Tie, name=Constraint-1, adjust=no, position tolerance=1.
  *Tie, name=Constraint-2, adjust=no, position tolerance=1.
  *Shell Section, elset="FAN casing-1_Set-1", material=Titanium
  *Shell Section, elset=core-casing-1_Set-4, material=INCONEL
  *Shell Section, elset=core-casing-1_Set-3, material=INCONEL
  *Shell Section, elset=core-casing-1__I3, material=INCONEL
  *Shell Section, elset=core-casing-1_Set-1, material=INCONEL
  *Shell Section, elset=core-casing-1_Set-7, material=INCONEL
  *Beam General Section, elset=ROTOR-1_Set-1, density=4.5e-09, section=GENERAL
  *Beam General Section, elset=OGV-1_Set-1, section=GENERAL
  *Beam General Section, elset=OGV-1-rad-2_Set-1, section=GENERAL
  *Beam General Section, elset=OGV-1-rad-3_Set-1, section=GENERAL
  *Beam General Section, elset=OGV-1-rad-4_Set-1, section=GENERAL
  *Beam General Section, elset=OGV-1-rad-5_Set-1, section=GENERAL
  *Beam General Section, elset=OGV-1-rad-6_Set-1, section=GENERAL
  *Beam General Section, elset=OGV-1-rad-7_Set-1, section=GENERAL
  *Beam General Section, elset=OGV-1-rad-8_Set-1, section=GENERAL
  *Beam General Section, elset=OGV-1-rad-9_Set-1, section=GENERAL
  *Beam General Section, elset=OGV-1-rad-10_Set-1, section=GENERAL
  *Beam General Section, elset=OGV-1-rad-11_Set-1, section=GENERAL
  *Beam General Section, elset=OGV-1-rad-12_Set-1, section=GENERAL
  *Beam General Section, elset=OGV-1-rad-13_Set-1, section=GENERAL
  *Beam General Section, elset=OGV-1-rad-14_Set-1, section=GENERAL
  *Beam General Section, elset=OGV-1-rad-15_Set-1, section=GENERAL
  *Beam General Section, elset=OGV-1-rad-16_Set-1, section=GENERAL
  *Beam General Section, elset=OGV-1-rad-17_Set-1, section=GENERAL
  *Beam General Section, elset=OGV-1-rad-18_Set-1, section=GENERAL
  *Beam General Section, elset=OGV-1-rad-19_Set-1, section=GENERAL
  *Beam General Section, elset=OGV-1-rad-20_Set-1, section=GENERAL
  *Beam General Section, elset=OGV-1-rad-21_Set-1, section=GENERAL
  *Beam General Section, elset=OGV-1-rad-22_Set-1, section=GENERAL
  *Beam General Section, elset=OGV-1-rad-23_Set-1, section=GENERAL
  *Beam General Section, elset=OGV-1-rad-24_Set-1, section=GENERAL
  *Beam General Section, elset=OGV-1-rad-25_Set-1, section=GENERAL
  *Beam General Section, elset=OGV-1-rad-26_Set-1, section=GENERAL
  *Beam General Section, elset=OGV-1-rad-27_Set-1, section=GENERAL
  *Beam General Section, elset=OGV-1-rad-28_Set-1, section=GENERAL
  *Beam General Section, elset=OGV-1-rad-29_Set-1, section=GENERAL
  *Beam General Section, elset=OGV-1-rad-30_Set-1, section=GENERAL
  *Beam General Section, elset=OGV-1-rad-31_Set-1, section=GENERAL
  *Beam General Section, elset=OGV-1-rad-32_Set-1, section=GENERAL
  *Beam General Section, elset=OGV-1-rad-33_Set-1, section=GENERAL
  *Beam General Section, elset=OGV-1-rad-34_Set-1, section=GENERAL
  *Beam General Section, elset=OGV-1-rad-35_Set-1, section=GENERAL
  *Beam General Section, elset=OGV-1-rad-36_Set-1, section=GENERAL
  *Beam General Section, elset=OGV-1-rad-37_Set-1, section=GENERAL
  *Beam General Section, elset=OGV-1-rad-38_Set-1, section=GENERAL
  *Beam General Section, elset=OGV-1-rad-39_Set-1, section=GENERAL
  *Beam General Section, elset=OGV-1-rad-40_Set-1, section=GENERAL
  *Coupling, constraint name=Constraint-4, ref node=m_Set-7, surface=s_Set-77_CNS_
  *Coupling, constraint name=Constraint-5, ref node="INTERCASE MASTER", surface="intercase slave_CNS_"
  *Coupling, constraint name=Constraint-6, ref node="hp/ip master roller bearing", surface="Roll bearing hp ip slave_CNS_"
  *Coupling, constraint name=Constraint-7, ref node="tail master", surface="tail roller slave_CNS_"
  *Coupling, constraint name=Constraint-8, ref node="Air intake force point", surface=s_Set-26_CNS_
  *Coupling, constraint name=Constraint-9, ref node=RP-6, surface=s_Set-63_CNS_
  *Coupling, constraint name=Constraint-10, ref node=m_Set-30, surface=s_Set-64_CNS_
  *Coupling, constraint name=Constraint-11, ref node=m_Set-32, surface=s_Set-65_CNS_
  *Coupling, constraint name=Constraint-12, ref node=m_Set-34, surface=s_Set-66_CNS_
  *Coupling, constraint name=Constraint-13, ref node=m_Set-36, surface=s_Set-67_CNS_
  *Coupling, constraint name=Constraint-14, ref node=m_Set-38, surface=s_Set-68_CNS_
  *Coupling, constraint name=Constraint-16, ref node=m_Set-112, surface=s_Set-112_CNS_
  *Coupling, constraint name=Constraint-17, ref node=m_Set-114, surface=s_Set-114_CNS_
  *Coupling, constraint name=Constraint-4, ref node=m_Set-7, surface=s_Set-77_CNS_
  *Kinematic

 ***WARNING: WHENEVER A TRANSLATION (ROTATION) DOF AT A NODE IS CONSTRAINED BY 
             A KINEMATIC COUPLING DEFINITION THE TRANSLATION (ROTATION) DOFS 
             FOR THAT NODE CANNOT BE INCLUDED IN ANY OTHER CONSTRAINT INCLUDING 
             MPCS, RIGID BODIES, ETC.
  *Coupling, constraint name=Constraint-5, ref node="INTERCASE MASTER", surface="intercase slave_CNS_"
  *Kinematic
  *Coupling, constraint name=Constraint-6, ref node="hp/ip master roller bearing", surface="Roll bearing hp ip slave_CNS_"
  *Kinematic
  *Coupling, constraint name=Constraint-7, ref node="tail master", surface="tail roller slave_CNS_"
  *Kinematic
  *Coupling, constraint name=Constraint-8, ref node="Air intake force point", surface=s_Set-26_CNS_
  *Coupling, constraint name=Constraint-9, ref node=RP-6, surface=s_Set-63_CNS_
  *Coupling, constraint name=Constraint-10, ref node=m_Set-30, surface=s_Set-64_CNS_
  *Coupling, constraint name=Constraint-11, ref node=m_Set-32, surface=s_Set-65_CNS_
  *Coupling, constraint name=Constraint-12, ref node=m_Set-34, surface=s_Set-66_CNS_
  *Coupling, constraint name=Constraint-13, ref node=m_Set-36, surface=s_Set-67_CNS_
  *Coupling, constraint name=Constraint-14, ref node=m_Set-38, surface=s_Set-68_CNS_
  *Coupling, constraint name=Constraint-16, ref node=m_Set-112, surface=s_Set-112_CNS_
  *Coupling, constraint name=Constraint-17, ref node=m_Set-114, surface=s_Set-114_CNS_
  *Coupling, constraint name=Constraint-4, ref node=m_Set-7, surface=s_Set-77_CNS_
  *Coupling, constraint name=Constraint-5, ref node="INTERCASE MASTER", surface="intercase slave_CNS_"
  *Coupling, constraint name=Constraint-6, ref node="hp/ip master roller bearing", surface="Roll bearing hp ip slave_CNS_"
  *Coupling, constraint name=Constraint-7, ref node="tail master", surface="tail roller slave_CNS_"
  *Coupling, constraint name=Constraint-8, ref node="Air intake force point", surface=s_Set-26_CNS_
  *Distributing, weighting method=UNIFORM, coupling=STRUCTURAL

 ***WARNING: A DISTRIBUTED COUPLING DEFINITION WITH COUPLING=STRUCTURAL WILL 
             IGNORE THE STRUCTURAL COUPLING AS THE SURFACE USED IN THE 
             DEFINITION IS EITHER NODE-BASED OR THE REFERENCE NODE DOES PROJECT 
             ONTO THE SURFACE.
  *Coupling, constraint name=Constraint-9, ref node=RP-6, surface=s_Set-63_CNS_
  *Distributing, weighting method=UNIFORM, coupling=STRUCTURAL

 ***WARNING: A DISTRIBUTED COUPLING DEFINITION WITH COUPLING=STRUCTURAL WILL 
             IGNORE THE STRUCTURAL COUPLING AS THE SURFACE USED IN THE 
             DEFINITION IS EITHER NODE-BASED OR THE REFERENCE NODE DOES PROJECT 
             ONTO THE SURFACE.
  *Coupling, constraint name=Constraint-10, ref node=m_Set-30, surface=s_Set-64_CNS_
  *Distributing, weighting method=UNIFORM, coupling=STRUCTURAL

 ***WARNING: A DISTRIBUTED COUPLING DEFINITION WITH COUPLING=STRUCTURAL WILL 
             IGNORE THE STRUCTURAL COUPLING AS THE SURFACE USED IN THE 
             DEFINITION IS EITHER NODE-BASED OR THE REFERENCE NODE DOES PROJECT 
             ONTO THE SURFACE.
  *Coupling, constraint name=Constraint-11, ref node=m_Set-32, surface=s_Set-65_CNS_
  *Distributing, weighting method=UNIFORM, coupling=STRUCTURAL

 ***WARNING: A DISTRIBUTED COUPLING DEFINITION WITH COUPLING=STRUCTURAL WILL 
             IGNORE THE STRUCTURAL COUPLING AS THE SURFACE USED IN THE 
             DEFINITION IS EITHER NODE-BASED OR THE REFERENCE NODE DOES PROJECT 
             ONTO THE SURFACE.
  *Coupling, constraint name=Constraint-12, ref node=m_Set-34, surface=s_Set-66_CNS_
  *Distributing, weighting method=UNIFORM, coupling=STRUCTURAL

 ***WARNING: A DISTRIBUTED COUPLING DEFINITION WITH COUPLING=STRUCTURAL WILL 
             IGNORE THE STRUCTURAL COUPLING AS THE SURFACE USED IN THE 
             DEFINITION IS EITHER NODE-BASED OR THE REFERENCE NODE DOES PROJECT 
             ONTO THE SURFACE.
  *Coupling, constraint name=Constraint-13, ref node=m_Set-36, surface=s_Set-67_CNS_
  *Distributing, weighting method=UNIFORM, coupling=STRUCTURAL

 ***WARNING: A DISTRIBUTED COUPLING DEFINITION WITH COUPLING=STRUCTURAL WILL 
             IGNORE THE STRUCTURAL COUPLING AS THE SURFACE USED IN THE 
             DEFINITION IS EITHER NODE-BASED OR THE REFERENCE NODE DOES PROJECT 
             ONTO THE SURFACE.
  *Coupling, constraint name=Constraint-14, ref node=m_Set-38, surface=s_Set-68_CNS_
  *Distributing, weighting method=UNIFORM, coupling=STRUCTURAL

 ***WARNING: A DISTRIBUTED COUPLING DEFINITION WITH COUPLING=STRUCTURAL WILL 
             IGNORE THE STRUCTURAL COUPLING AS THE SURFACE USED IN THE 
             DEFINITION IS EITHER NODE-BASED OR THE REFERENCE NODE DOES PROJECT 
             ONTO THE SURFACE.
  *Coupling, constraint name=Constraint-16, ref node=m_Set-112, surface=s_Set-112_CNS_
  *Distributing, weighting method=UNIFORM, coupling=STRUCTURAL

 ***WARNING: A DISTRIBUTED COUPLING DEFINITION WITH COUPLING=STRUCTURAL WILL 
             IGNORE THE STRUCTURAL COUPLING AS THE SURFACE USED IN THE 
             DEFINITION IS EITHER NODE-BASED OR THE REFERENCE NODE DOES PROJECT 
             ONTO THE SURFACE.
  *Coupling, constraint name=Constraint-17, ref node=m_Set-114, surface=s_Set-114_CNS_
  *Distributing, weighting method=UNIFORM, coupling=STRUCTURAL

 ***WARNING: A DISTRIBUTED COUPLING DEFINITION WITH COUPLING=STRUCTURAL WILL 
             IGNORE THE STRUCTURAL COUPLING AS THE SURFACE USED IN THE 
             DEFINITION IS EITHER NODE-BASED OR THE REFERENCE NODE DOES PROJECT 
             ONTO THE SURFACE.
  *Material, name=INCONEL
  *Density
  *Elastic
  *Material, name=Titanium
  *Density
  *Elastic
  *Beam General Section, elset=ROTOR-1_Set-1, density=4.5e-09, section=GENERAL
  *Beam General Section, elset=OGV-1_Set-1, section=GENERAL
  *Beam General Section, elset=OGV-1-rad-2_Set-1, section=GENERAL
  *Beam General Section, elset=OGV-1-rad-3_Set-1, section=GENERAL
  *Beam General Section, elset=OGV-1-rad-4_Set-1, section=GENERAL
  *Beam General Section, elset=OGV-1-rad-5_Set-1, section=GENERAL
  *Beam General Section, elset=OGV-1-rad-6_Set-1, section=GENERAL
  *Beam General Section, elset=OGV-1-rad-7_Set-1, section=GENERAL
  *Beam General Section, elset=OGV-1-rad-8_Set-1, section=GENERAL
  *Beam General Section, elset=OGV-1-rad-9_Set-1, section=GENERAL
  *Beam General Section, elset=OGV-1-rad-10_Set-1, section=GENERAL
  *Beam General Section, elset=OGV-1-rad-11_Set-1, section=GENERAL
  *Beam General Section, elset=OGV-1-rad-12_Set-1, section=GENERAL
  *Beam General Section, elset=OGV-1-rad-13_Set-1, section=GENERAL
  *Beam General Section, elset=OGV-1-rad-14_Set-1, section=GENERAL
  *Beam General Section, elset=OGV-1-rad-15_Set-1, section=GENERAL
  *Beam General Section, elset=OGV-1-rad-16_Set-1, section=GENERAL
  *Beam General Section, elset=OGV-1-rad-17_Set-1, section=GENERAL
  *Beam General Section, elset=OGV-1-rad-18_Set-1, section=GENERAL
  *Beam General Section, elset=OGV-1-rad-19_Set-1, section=GENERAL
  *Beam General Section, elset=OGV-1-rad-20_Set-1, section=GENERAL
  *Beam General Section, elset=OGV-1-rad-21_Set-1, section=GENERAL
  *Beam General Section, elset=OGV-1-rad-22_Set-1, section=GENERAL
  *Beam General Section, elset=OGV-1-rad-23_Set-1, section=GENERAL
  *Beam General Section, elset=OGV-1-rad-24_Set-1, section=GENERAL
  *Beam General Section, elset=OGV-1-rad-25_Set-1, section=GENERAL
  *Beam General Section, elset=OGV-1-rad-26_Set-1, section=GENERAL
  *Beam General Section, elset=OGV-1-rad-27_Set-1, section=GENERAL
  *Beam General Section, elset=OGV-1-rad-28_Set-1, section=GENERAL
  *Beam General Section, elset=OGV-1-rad-29_Set-1, section=GENERAL
  *Beam General Section, elset=OGV-1-rad-30_Set-1, section=GENERAL
  *Beam General Section, elset=OGV-1-rad-31_Set-1, section=GENERAL
  *Beam General Section, elset=OGV-1-rad-32_Set-1, section=GENERAL
  *Beam General Section, elset=OGV-1-rad-33_Set-1, section=GENERAL
  *Beam General Section, elset=OGV-1-rad-34_Set-1, section=GENERAL
  *Beam General Section, elset=OGV-1-rad-35_Set-1, section=GENERAL
  *Beam General Section, elset=OGV-1-rad-36_Set-1, section=GENERAL
  *Beam General Section, elset=OGV-1-rad-37_Set-1, section=GENERAL
  *Beam General Section, elset=OGV-1-rad-38_Set-1, section=GENERAL
  *Beam General Section, elset=OGV-1-rad-39_Set-1, section=GENERAL
  *Beam General Section, elset=OGV-1-rad-40_Set-1, section=GENERAL
  *Mass, elset="Set-116_Mass FAN_MASS_"
  *Mass, elset="Set-117_Mass torque box_MASS_"
  *Rotary Inertia, elset="Set-116_Mass FAN_ROTI_"
  *Rotary Inertia, elset="Set-117_Mass torque box_ROTI_"
  *Shell Section, elset="FAN casing-1_Set-1", material=Titanium
  *Shell Section, elset=core-casing-1_Set-4, material=INCONEL
  *Shell Section, elset=core-casing-1_Set-3, material=INCONEL
  *Shell Section, elset=core-casing-1__I3, material=INCONEL
  *Shell Section, elset=core-casing-1_Set-1, material=INCONEL
  *Shell Section, elset=core-casing-1_Set-7, material=INCONEL
  *Boundary, op=NEW
  *Boundary, op=NEW
  *Boundary, op=NEW
  *Boundary, op=NEW
  *Boundary, op=NEW
  *Boundary, op=NEW
  *Tie, name=Constraint-1, adjust=no, position tolerance=1.

 ***WARNING: SLAVE SURFACE S_SET-172_CNS_ IS A NODE-BASED SURFACE USED WITH 
             SURFACE TO SURFACE APPROACH.  IN ORDER TO OBTAIN IMPROVED STRESS 
             ACCURACY WITH THIS APPROACH, AN ELEMENT-BASED SURFACE SHOULD BE 
             USED INSTEAD.

 ***WARNING: IF SIGNIFICANT CLEARANCE/OVERCLOSURE EXISTS BETWEEN SURFACE PAIR 
             (S_SET-172_CNS_,OGV ALL_CNS_) AND THE MASTER SURFACE DOES NOT HAVE 
             ROTATIONAL DEGREES OF FREEDOM, ADJUSTMENT IS RECOMMENDED FOR 
             CORRECT ENFORCEMENT OF THE TIE CONSTRAINT
  *Tie, name=Constraint-2, adjust=no, position tolerance=1.

 ***WARNING: IF SIGNIFICANT CLEARANCE/OVERCLOSURE EXISTS BETWEEN SURFACE PAIR 
             (M_SURF-7,OGV ALL_CNS_) AND THE MASTER SURFACE DOES NOT HAVE 
             ROTATIONAL DEGREES OF FREEDOM, ADJUSTMENT IS RECOMMENDED FOR 
             CORRECT ENFORCEMENT OF THE TIE CONSTRAINT
  *Tie, name=Constraint-1, adjust=no, position tolerance=1.
  *Tie, name=Constraint-2, adjust=no, position tolerance=1.
  *Tie, name=Constraint-1, adjust=no, position tolerance=1.

 ***WARNING: SLAVE NODE 1 WILL NOT BE TIED TO THE MASTER SURFACE OGV ALL_CNS_. 
             THE DISTANCE FROM THE MASTER SURFACE IS GREATER THAN THE POSITION 
             TOLERANCE VALUE.

 ***WARNING: SLAVE NODE 2 WILL NOT BE TIED TO THE MASTER SURFACE OGV ALL_CNS_. 
             THE DISTANCE FROM THE MASTER SURFACE IS GREATER THAN THE POSITION 
             TOLERANCE VALUE.

 ***WARNING: SLAVE NODE 4 WILL NOT BE TIED TO THE MASTER SURFACE OGV ALL_CNS_. 
             THE DISTANCE FROM THE MASTER SURFACE IS GREATER THAN THE POSITION 
             TOLERANCE VALUE.

 ***WARNING: SLAVE NODE 5 WILL NOT BE TIED TO THE MASTER SURFACE OGV ALL_CNS_. 
             THE DISTANCE FROM THE MASTER SURFACE IS GREATER THAN THE POSITION 
             TOLERANCE VALUE.

 ***WARNING: SLAVE NODE 6 WILL NOT BE TIED TO THE MASTER SURFACE OGV ALL_CNS_. 
             THE DISTANCE FROM THE MASTER SURFACE IS GREATER THAN THE POSITION 
             TOLERANCE VALUE.

 ***WARNING: SLAVE NODE 8 WILL NOT BE TIED TO THE MASTER SURFACE OGV ALL_CNS_. 
             THE DISTANCE FROM THE MASTER SURFACE IS GREATER THAN THE POSITION 
             TOLERANCE VALUE.

 ***WARNING: SLAVE NODE 11 WILL NOT BE TIED TO THE MASTER SURFACE OGV ALL_CNS_. 
             THE DISTANCE FROM THE MASTER SURFACE IS GREATER THAN THE POSITION 
             TOLERANCE VALUE.

 ***WARNING: SLAVE NODE 12 WILL NOT BE TIED TO THE MASTER SURFACE OGV ALL_CNS_. 
             THE DISTANCE FROM THE MASTER SURFACE IS GREATER THAN THE POSITION 
             TOLERANCE VALUE.

 ***WARNING: SLAVE NODE 14 WILL NOT BE TIED TO THE MASTER SURFACE OGV ALL_CNS_. 
             THE DISTANCE FROM THE MASTER SURFACE IS GREATER THAN THE POSITION 
             TOLERANCE VALUE.

 ***WARNING: SLAVE NODE 16 WILL NOT BE TIED TO THE MASTER SURFACE OGV ALL_CNS_. 
             THE DISTANCE FROM THE MASTER SURFACE IS GREATER THAN THE POSITION 
             TOLERANCE VALUE.

 ***WARNING: SLAVE NODE 18 WILL NOT BE TIED TO THE MASTER SURFACE OGV ALL_CNS_. 
             THE DISTANCE FROM THE MASTER SURFACE IS GREATER THAN THE POSITION 
             TOLERANCE VALUE.

 ***NOTE: THE ABOVE WARNING MESSAGE IS BEING SUPPRESSED DUE TO EXCESSIVE 
          REPORTING.
  *Tie, name=Constraint-2, adjust=no, position tolerance=1.

 ***WARNING: SLAVE NODE 6010 WILL NOT BE TIED TO THE MASTER SURFACE OGV 
             ALL_CNS_. THE DISTANCE FROM THE MASTER SURFACE IS GREATER THAN THE 
             POSITION TOLERANCE VALUE.

 ***WARNING: SLAVE NODE 6011 WILL NOT BE TIED TO THE MASTER SURFACE OGV 
             ALL_CNS_. THE DISTANCE FROM THE MASTER SURFACE IS GREATER THAN THE 
             POSITION TOLERANCE VALUE.

 ***WARNING: SLAVE NODE 6014 WILL NOT BE TIED TO THE MASTER SURFACE OGV 
             ALL_CNS_. THE DISTANCE FROM THE MASTER SURFACE IS GREATER THAN THE 
             POSITION TOLERANCE VALUE.

 ***WARNING: SLAVE NODE 6018 WILL NOT BE TIED TO THE MASTER SURFACE OGV 
             ALL_CNS_. THE DISTANCE FROM THE MASTER SURFACE IS GREATER THAN THE 
             POSITION TOLERANCE VALUE.

 ***WARNING: SLAVE NODE 6019 WILL NOT BE TIED TO THE MASTER SURFACE OGV 
             ALL_CNS_. THE DISTANCE FROM THE MASTER SURFACE IS GREATER THAN THE 
             POSITION TOLERANCE VALUE.

 ***WARNING: SLAVE NODE 6021 WILL NOT BE TIED TO THE MASTER SURFACE OGV 
             ALL_CNS_. THE DISTANCE FROM THE MASTER SURFACE IS GREATER THAN THE 
             POSITION TOLERANCE VALUE.

 ***WARNING: SLAVE NODE 6033 WILL NOT BE TIED TO THE MASTER SURFACE OGV 
             ALL_CNS_. THE DISTANCE FROM THE MASTER SURFACE IS GREATER THAN THE 
             POSITION TOLERANCE VALUE.

 ***WARNING: SLAVE NODE 6034 WILL NOT BE TIED TO THE MASTER SURFACE OGV 
             ALL_CNS_. THE DISTANCE FROM THE MASTER SURFACE IS GREATER THAN THE 
             POSITION TOLERANCE VALUE.

 ***WARNING: SLAVE NODE 6035 WILL NOT BE TIED TO THE MASTER SURFACE OGV 
             ALL_CNS_. THE DISTANCE FROM THE MASTER SURFACE IS GREATER THAN THE 
             POSITION TOLERANCE VALUE.

 ***WARNING: SLAVE NODE 6038 WILL NOT BE TIED TO THE MASTER SURFACE OGV 
             ALL_CNS_. THE DISTANCE FROM THE MASTER SURFACE IS GREATER THAN THE 
             POSITION TOLERANCE VALUE.

 ***WARNING: SLAVE NODE 6039 WILL NOT BE TIED TO THE MASTER SURFACE OGV 
             ALL_CNS_. THE DISTANCE FROM THE MASTER SURFACE IS GREATER THAN THE 
             POSITION TOLERANCE VALUE.

 ***NOTE: THE ABOVE WARNING MESSAGE IS BEING SUPPRESSED DUE TO EXCESSIVE 
          REPORTING.
  *Beam General Section, elset=ROTOR-1_Set-1, density=4.5e-09, section=GENERAL
  *Beam General Section, elset=OGV-1_Set-1, section=GENERAL
  *Beam General Section, elset=OGV-1-rad-2_Set-1, section=GENERAL
  *Beam General Section, elset=OGV-1-rad-3_Set-1, section=GENERAL
  *Beam General Section, elset=OGV-1-rad-4_Set-1, section=GENERAL
  *Beam General Section, elset=OGV-1-rad-5_Set-1, section=GENERAL
  *Beam General Section, elset=OGV-1-rad-6_Set-1, section=GENERAL
  *Beam General Section, elset=OGV-1-rad-7_Set-1, section=GENERAL
  *Beam General Section, elset=OGV-1-rad-8_Set-1, section=GENERAL
  *Beam General Section, elset=OGV-1-rad-9_Set-1, section=GENERAL
  *Beam General Section, elset=OGV-1-rad-10_Set-1, section=GENERAL
  *Beam General Section, elset=OGV-1-rad-11_Set-1, section=GENERAL
  *Beam General Section, elset=OGV-1-rad-12_Set-1, section=GENERAL
  *Beam General Section, elset=OGV-1-rad-13_Set-1, section=GENERAL
  *Beam General Section, elset=OGV-1-rad-14_Set-1, section=GENERAL
  *Beam General Section, elset=OGV-1-rad-15_Set-1, section=GENERAL
  *Beam General Section, elset=OGV-1-rad-16_Set-1, section=GENERAL
  *Beam General Section, elset=OGV-1-rad-17_Set-1, section=GENERAL
  *Beam General Section, elset=OGV-1-rad-18_Set-1, section=GENERAL
  *Beam General Section, elset=OGV-1-rad-19_Set-1, section=GENERAL
  *Beam General Section, elset=OGV-1-rad-20_Set-1, section=GENERAL
  *Beam General Section, elset=OGV-1-rad-21_Set-1, section=GENERAL
  *Beam General Section, elset=OGV-1-rad-22_Set-1, section=GENERAL
  *Beam General Section, elset=OGV-1-rad-23_Set-1, section=GENERAL
  *Beam General Section, elset=OGV-1-rad-24_Set-1, section=GENERAL
  *Beam General Section, elset=OGV-1-rad-25_Set-1, section=GENERAL
  *Beam General Section, elset=OGV-1-rad-26_Set-1, section=GENERAL
  *Beam General Section, elset=OGV-1-rad-27_Set-1, section=GENERAL
  *Beam General Section, elset=OGV-1-rad-28_Set-1, section=GENERAL
  *Beam General Section, elset=OGV-1-rad-29_Set-1, section=GENERAL
  *Beam General Section, elset=OGV-1-rad-30_Set-1, section=GENERAL
  *Beam General Section, elset=OGV-1-rad-31_Set-1, section=GENERAL
  *Beam General Section, elset=OGV-1-rad-32_Set-1, section=GENERAL
  *Beam General Section, elset=OGV-1-rad-33_Set-1, section=GENERAL
  *Beam General Section, elset=OGV-1-rad-34_Set-1, section=GENERAL
  *Beam General Section, elset=OGV-1-rad-35_Set-1, section=GENERAL
  *Beam General Section, elset=OGV-1-rad-36_Set-1, section=GENERAL
  *Beam General Section, elset=OGV-1-rad-37_Set-1, section=GENERAL
  *Beam General Section, elset=OGV-1-rad-38_Set-1, section=GENERAL
  *Beam General Section, elset=OGV-1-rad-39_Set-1, section=GENERAL
  *Beam General Section, elset=OGV-1-rad-40_Set-1, section=GENERAL
  *Shell Section, elset="FAN casing-1_Set-1", material=Titanium
  *Shell Section, elset=core-casing-1_Set-4, material=INCONEL
  *Shell Section, elset=core-casing-1_Set-3, material=INCONEL
  *Shell Section, elset=core-casing-1__I3, material=INCONEL
  *Shell Section, elset=core-casing-1_Set-1, material=INCONEL
  *Shell Section, elset=core-casing-1_Set-7, material=INCONEL
  *Mass, elset="Set-116_Mass FAN_MASS_"
  *Mass, elset="Set-117_Mass torque box_MASS_"
  *Rotary Inertia, elset="Set-116_Mass FAN_ROTI_"
  *Rotary Inertia, elset="Set-117_Mass torque box_ROTI_"
  *Tie, name=Constraint-1, adjust=no, position tolerance=1.
  *Tie, name=Constraint-2, adjust=no, position tolerance=1.
  *Output, field, variable=PRESELECT
  *Output, history, frequency=0

 ***WARNING: 3484 nodes are either missing intersection with their respective 
             master surface or are outside the adjust zone. The nodes have been 
             identified in node set WarnNodeMissMasterIntersect.
  *Output, field, variable=PRESELECT
  *Output, history, frequency=0
  *Output, field, variable=PRESELECT
  *Output, history, frequency=0

 ***WARNING: MPCS (EXTERNAL or INTERNAL, including those generated from rigid 
             body definitions), KINEMATIC COUPLINGS, AND/OR EQUATIONS WILL 
             ACTIVATE ADDITIONAL DEGREES OF FREEDOM
  *Step, name=Step-2, nlgeom=NO, perturbation
  *Output, field, variable=PRESELECT
  *Output, history, frequency=0
  *Load Case, name=FX
  *Load Case, name=Fz
  *Load Case, name=gravity
  *Step, name=Step-2, nlgeom=NO, perturbation

 ***WARNING: NODE SET M_SET-118 HAS NO MEMBERS AND WILL BE IGNORED.  NODES 
             DEFINED IN THIS SET MAY HAVE BEEN DELETED BECAUSE THEY WERE NOT 
             CONNECTED TO ANY ELEMENTS.

 ***WARNING: NODE SET M_SET-119 HAS NO MEMBERS AND WILL BE IGNORED.  NODES 
             DEFINED IN THIS SET MAY HAVE BEEN DELETED BECAUSE THEY WERE NOT 
             CONNECTED TO ANY ELEMENTS.

 ***WARNING: NODE SET M_SET-120 HAS NO MEMBERS AND WILL BE IGNORED.  NODES 
             DEFINED IN THIS SET MAY HAVE BEEN DELETED BECAUSE THEY WERE NOT 
             CONNECTED TO ANY ELEMENTS.

 ***WARNING: NODE SET M_SET-147 HAS NO MEMBERS AND WILL BE IGNORED.  NODES 
             DEFINED IN THIS SET MAY HAVE BEEN DELETED BECAUSE THEY WERE NOT 
             CONNECTED TO ANY ELEMENTS.

 ***WARNING: NODE SET M_SET-148 HAS NO MEMBERS AND WILL BE IGNORED.  NODES 
             DEFINED IN THIS SET MAY HAVE BEEN DELETED BECAUSE THEY WERE NOT 
             CONNECTED TO ANY ELEMENTS.

 ***WARNING: NODE SET M_SET-149 HAS NO MEMBERS AND WILL BE IGNORED.  NODES 
             DEFINED IN THIS SET MAY HAVE BEEN DELETED BECAUSE THEY WERE NOT 
             CONNECTED TO ANY ELEMENTS.

 ***WARNING: NODE SET M_SET-150 HAS NO MEMBERS AND WILL BE IGNORED.  NODES 
             DEFINED IN THIS SET MAY HAVE BEEN DELETED BECAUSE THEY WERE NOT 
             CONNECTED TO ANY ELEMENTS.

 ***WARNING: NODE SET M_SET-152 HAS NO MEMBERS AND WILL BE IGNORED.  NODES 
             DEFINED IN THIS SET MAY HAVE BEEN DELETED BECAUSE THEY WERE NOT 
             CONNECTED TO ANY ELEMENTS.

 ***WARNING: NODE SET M_SET-159 HAS NO MEMBERS AND WILL BE IGNORED.  NODES 
             DEFINED IN THIS SET MAY HAVE BEEN DELETED BECAUSE THEY WERE NOT 
             CONNECTED TO ANY ELEMENTS.

 ***WARNING: NODE SET M_SET-166 HAS NO MEMBERS AND WILL BE IGNORED.  NODES 
             DEFINED IN THIS SET MAY HAVE BEEN DELETED BECAUSE THEY WERE NOT 
             CONNECTED TO ANY ELEMENTS.

 ***WARNING: NODE SET M_SET-151 HAS NO MEMBERS AND WILL BE IGNORED.  NODES 
             DEFINED IN THIS SET MAY HAVE BEEN DELETED BECAUSE THEY WERE NOT 
             CONNECTED TO ANY ELEMENTS.

 ***WARNING: NODE SET SET-121 HAS NO MEMBERS AND WILL BE IGNORED.  NODES 
             DEFINED IN THIS SET MAY HAVE BEEN DELETED BECAUSE THEY WERE NOT 
             CONNECTED TO ANY ELEMENTS.

 ***WARNING: NODE SET SET-122 HAS NO MEMBERS AND WILL BE IGNORED.  NODES 
             DEFINED IN THIS SET MAY HAVE BEEN DELETED BECAUSE THEY WERE NOT 
             CONNECTED TO ANY ELEMENTS.

 ***WARNING: NODE SET SET-123 HAS NO MEMBERS AND WILL BE IGNORED.  NODES 
             DEFINED IN THIS SET MAY HAVE BEEN DELETED BECAUSE THEY WERE NOT 
             CONNECTED TO ANY ELEMENTS.

 ***WARNING: NODE SET SET-161 HAS NO MEMBERS AND WILL BE IGNORED.  NODES 
             DEFINED IN THIS SET MAY HAVE BEEN DELETED BECAUSE THEY WERE NOT 
             CONNECTED TO ANY ELEMENTS.

 ***WARNING: NODE SET SET-168 HAS NO MEMBERS AND WILL BE IGNORED.  NODES 
             DEFINED IN THIS SET MAY HAVE BEEN DELETED BECAUSE THEY WERE NOT 
             CONNECTED TO ANY ELEMENTS.
  *Step, name=Step-2, nlgeom=NO, perturbation
  *Static
  *Output, field, variable=PRESELECT
  *Output, history, frequency=0
  *Node Print, nset="FAN CASING"
  *Node Print, nset="FAN CENTER"
  *Node Print, nset="IPC1 CASING"
  *Node Print, nset="IPC1 CENTER"
  *Node Print, nset="IPC2 CASING"
  *Node Print, nset="IPC2 CENTER"
  *Node Print, nset="IPC3 CASING"
  *Node Print, nset="IPC3 CENTER"
  *Node Print, nset="HPC1 CASING"
  *Node Print, nset="HPC1 CENTER"
  *Node Print, nset="HPC2 CASING"
  *Node Print, nset="HPC2 CENTER"
  *Node Print, nset="HPC3 CASING"
  *Node Print, nset="HPC3 CENTER"
  *Node Print, nset="HPC4 CASING"
  *Node Print, nset="HPC4 CENTER"
  *Node Print, nset="HPC5 CASING"
  *Node Print, nset="HPC5 CENTER"
  *Node Print, nset="HPC6 CASING"
  *Node Print, nset="HPC6 CENTER"
  *Node Print, nset="HPC7 CASING"
  *Node Print, nset="HPC7 CENTER"
  *Node Print, nset="HPC8 CASING"
  *Node Print, nset="HPC8 CENTER"
  *Node Print, nset="HPC9 CASING"
  *Node Print, nset="HPC9 CENTER"
  *Node Print, nset="HPC10 CASING"
  *Node Print, nset="HPC10 CENTER"
  *Node Print, nset="HPT1 CASING"
  *Node Print, nset="HPT1 CENTER"
  *Node Print, nset="HPT2 CASING"
  *Node Print, nset="HPT2 CENTER"
  *Node Print, nset="IPT1 CASING"
  *Node Print, nset="IPT1 CENTER"
  *Node Print, nset="IPT2 CASING"
  *Node Print, nset="IPT2 CENTER"
  *Node Print, nset="IPT3 CASING"
  *Node Print, nset="IPT3 CENTER"
  *Node Print, nset="IPT4 CASING"
  *Node Print, nset="IPT4 CENTER"
  *Node Print, nset=interface
  *Load Case, name=FX
  *Boundary, op=NEW
  *Boundary, op=NEW
  *Dload
  *Load Case, name=Fz
  *Boundary, op=NEW
  *Boundary, op=NEW
  *Load Case, name=gravity
  *Boundary, op=NEW
  *Boundary, op=NEW
  *Dload

 ***NOTE: ALL ELEMENTS THAT HAVE MASS ARE COLLECTED IN ELEMENT SET 
          _Whole_Model_Gravity_Elset FOR APPLICATION OF GRAVITY LOAD.
  *End Step
  *Step, name=Step-2, nlgeom=NO, perturbation
  *Static
  *Load Case, name=FX
  *Boundary, op=NEW
  *Boundary, op=NEW
  *Cload
  *Cload
  *Cload
  *Cload
  *Cload
  *Cload
  *Cload
  *Cload
  *Cload
  *Load Case, name=Fz
  *Boundary, op=NEW
  *Boundary, op=NEW
  *Cload
  *Load Case, name=gravity
  *Boundary, op=NEW
  *Boundary, op=NEW
  *End Step

 ***WARNING: OVERCONSTRAINT CHECKS FOR BOUNDARY CONDITIONS ON NODES BELONGING 
             TO CONNECTOR ELEMENTS, RIGID BODIES, AND *COUPLING CONSTRAINTS ARE 
             NOT PERFORMED IN STEPS WITH *LOAD CASES
  
                               E L E M E N T   Q U A L I T Y  C H E C K S        
  
  
 ***NOTES: DISTORTED ISOPARAMETRIC ELEMENTS: ANGLE BETWEEN ISOPARAMETRIC LINES 
           IS LESS THAN 45 DEGREES OR GREATER THAN 135 DEGREES.
  
           TETRAHEDRAL QUALITY MEASURE: VOLUME OF TETRAHEDRON DIVIDED BY THE 
           VOLUME OF EQUILATERAL TETRAHEDRON WITH SAME CIRCUMSPHERE RADIUS; 
           0 FOR DEGENERATE TETRAHEDRON AND 1 FOR EQUILATERIAL TETRAHEDRON. IT 
           IS RECOMMENDED THAT THE TETRAHEDRAL QUALITY MEASURE BE GREATER THAN 
           0.02, THE MIN INTERIOR (DIHEDRAL) ANGLE BE GREATER THAN 10 DEGREES, 
           AND THE MAX INTERIOR (DIHEDRAL) ANGLE BE LESS THAN 160 DEGREES. 
  
           MODIFIED TETRAHEDRAL QUALITY MEASURE: ANGLES BETWEEN THE TWO LINE 
           SEGMENTS ON EACH EDGE; THE EDGES OF MODIFIED TETRAHEDRAL SHOULD BE 
           AS STRAIGHT AS POSSIBLE. IT IS RECOMMENDED THAT THE ANGLE BETWEEN 
           THE TWO LINE SEGMENTS ON EACH EDGE IS BETWEEN 160 AND 180 DEGREES. 
  
           TRIANGULAR QUALITY MEASURE: AREA OF TRIANGLE DIVIDED BY THE AREA OF 
           EQUILATERAL TRIANGLE WITH SAME CIRCUMCIRCLE RADIUS; 0 FOR DEGENERATE 
           TRIANGLE AND 1 FOR EQUILATERAL TRIANGLE. IT IS RECOMMENDED THAT THE
           TRIANGULAR QUALITY MEASURE BE GREATER THAN 0.01, THE MIN INTERIOR 
           ANGLE BE GREATER THAN 10 DEGREES, AND THE MAX INTERIOR ANGLE BE LESS 
           THAN 160 DEGREES. 
  
           NODAL ADJUSTMENTS ARISING FROM CONTACT INTERACTIONS AND/OR TIE 
           CONSTRAINTS CAN CAUSE SEVERE ELEMENT DISTORTION. IT MAY BE NECESSARY 
           TO REMESH IN ORDER TO REDUCE THE AMOUNT OF ADJUSTMENT. 

 ***WARNING: The aspect ratio for 228 elements exceeds 100 to 1. The elements 
             have been identified in element set WarnElemAspectRatio.
  
 --------------------------------------------------------------------------------
 Elements with large aspect ratio
  
  Element  Adjusted nodes 
 --------- -------------- 
      5323       NO       
      5324       NO       
      5359       NO       
      5360       NO       
      5382       NO       
      5421       NO       
      5454       NO       
      5479       NO       
      5498       NO       
      5523       NO       
      5546       NO       
      5571       NO       
      5590       NO       
      5615       NO       
      5640       NO       
      5665       NO       
      5680       NO       
      5705       NO       
      6036       NO       
      6037       NO       
      6038       NO       
      6099       NO       
      6100       NO       
      6101       NO       
      6102       NO       
      6127       NO       
      6153       NO       
      6154       NO       
      6155       NO       
      6156       NO       
      6178       NO       
      6254       NO       
      6255       NO       
      6256       NO       
      6257       NO       
      6258       NO       
      6259       NO       
      6260       NO       
      6261       NO       
      6262       NO       
      6263       NO       
      6264       NO       
      6265       NO       
      6272       NO       
      6307       NO       
      6308       NO       
      6309       NO       
      6310       NO       
      6311       NO       
      6312       NO       
      6313       NO       
      6314       NO       
      6315       NO       
      6316       NO       
      6317       NO       
      6318       NO       
      6319       NO       
      6320       NO       
      6321       NO       
      6322       NO       
      6323       NO       
      6324       NO       
      6325       NO       
      6326       NO       
      6327       NO       
      6328       NO       
      6329       NO       
      6330       NO       
      6331       NO       
      6332       NO       
      6333       NO       
      6334       NO       
      6335       NO       
      6336       NO       
      6337       NO       
      6338       NO       
      6339       NO       
      6340       NO       
      6341       NO       
      6342       NO       
      6343       NO       
      6344       NO       
      6345       NO       
      6346       NO       
      6347       NO       
      6349       NO       
      6356       NO       
      6359       NO       
      6360       NO       
      6361       NO       
      7822       NO       
      7823       NO       
      7824       NO       
      7827       NO       
      7828       NO       
      7829       NO       
      7830       NO       
      7831       NO       
      7832       NO       
      7834       NO       
      7835       NO       
      7836       NO       
      7837       NO       
      7838       NO       
      7839       NO       
      7840       NO       
      7841       NO       
      7842       NO       
      7843       NO       
      7844       NO       
      7845       NO       
      7846       NO       
      7847       NO       
      7848       NO       
      7849       NO       
      7850       NO       
      7851       NO       
      7852       NO       
      7853       NO       
      7854       NO       
      7855       NO       
      7856       NO       
      7857       NO       
      7858       NO       
      7859       NO       
      7860       NO       
      7907       NO       
      7908       NO       
      7909       NO       
      7914       NO       
      7916       NO       
      7918       NO       
      7919       NO       
      7920       NO       
      7922       NO       
      8455       NO       
     10017       NO       
     10018       NO       
     10019       NO       
     10020       NO       
     10021       NO       
     10022       NO       
     10023       NO       
     10024       NO       
     10025       NO       
     10026       NO       
     10033       NO       
     10094       NO       
     10095       NO       
     10096       NO       
     10097       NO       
     10098       NO       
     10099       NO       
     10100       NO       
     10101       NO       
     10102       NO       
     10103       NO       
     10104       NO       
     10105       NO       
     10106       NO       
     10107       NO       
     10108       NO       
     10109       NO       
     10110       NO       
     10111       NO       
     10112       NO       
     10113       NO       
     10114       NO       
     10115       NO       
     10116       NO       
     10117       NO       
     10118       NO       
     10119       NO       
     10120       NO       
     10121       NO       
     10122       NO       
     10123       NO       
     10124       NO       
     10139       NO       
     10140       NO       
     10185       NO       
     10194       NO       
     10195       NO       
     10313       NO       
     10314       NO       
     10315       NO       
     10353       NO       
     10354       NO       
     10355       NO       
     10358       NO       
     10359       NO       
     10360       NO       
     10361       NO       
     10362       NO       
     10363       NO       
     10365       NO       
     10366       NO       
     10371       NO       
     10372       NO       
     10374       NO       
     10376       NO       
     10378       NO       
     10381       NO       
     10383       NO       
     10385       NO       
     10387       NO       
     10390       NO       
     10392       NO       
     10393       NO       
     10394       NO       
     10395       NO       
     10490       NO       
     10491       NO       
     10494       NO       
     10507       NO       
     10508       NO       
     10509       NO       
     10576       NO       
     10577       NO       
     10578       NO       
     10579       NO       
     10580       NO       
     10581       NO       
     10582       NO       
     10583       NO       
     10584       NO       
     10622       NO       
     10624       NO       
  



                            P R O B L E M   S I Z E


          NUMBER OF ELEMENTS IS                                 10656
          NUMBER OF ELEMENTS DEFINED BY THE USER AND *TIE       10653
          NUMBER OF NODES IS                                    12561
          NUMBER OF NODES DEFINED BY THE USER                   10945
          NUMBER OF INTERNAL NODES GENERATED BY THE PROGRAM      1616
          TOTAL NUMBER OF VARIABLES IN THE MODEL                67398
          (DEGREES OF FREEDOM PLUS MAX NO. OF ANY LAGRANGE MULTIPLIER
           VARIABLES. INCLUDE *PRINT,SOLVE=YES TO GET THE ACTUAL NUMBER.)



                              END OF USER INPUT PROCESSING



     JOB TIME SUMMARY
       USER TIME (SEC)      =  0.60000    
       SYSTEM TIME (SEC)    =  0.10000    
       TOTAL CPU TIME (SEC) =  0.70000    
       WALLCLOCK TIME (SEC) =          4
1

   Abaqus 6.14-1                                  Date 23-mars-2017   Time 10:43:30
   For use at INSA TOULOUSE under license from Dassault Systemes or its subsidiary.

                                                                                               STEP    1  INCREMENT    1
                                                                                          TIME COMPLETED IN THIS STEP   0.00    


                        S T E P       1     S T A T I C   A N A L Y S I S


                                                                                          

          FIXED TIME INCREMENTS
          TIME INCREMENT IS                                    2.220E-16
          TIME PERIOD IS                                       2.220E-16

     LINEAR EQUATION SOLVER TYPE         DIRECT SPARSE

     THIS IS A LINEAR PERTURBATION STEP.
     ALL LOADS ARE DEFINED AS CHANGE IN LOAD TO THE REFERENCE STATE



                    TOTAL MASS OF MODEL

                       17.55241    


                    LOCATION OF THE CENTER OF MASS OF THE MODEL

                       2337.804          9.4418845E-14     -5.2605790E-15


                    MOMENTS OF INERTIA ABOUT THE ORIGIN
                           I(XX)               I(YY)               I(ZZ)

                       8962175.          1.3244973E+08      1.3244957E+08


                    PRODUCTS OF INERTIA ABOUT THE ORIGIN
                           I(XY)               I(XZ)               I(YZ)

                     -6.2832379E-09      5.3000804E-10     -1.1572234E-03


                    MOMENTS OF INERTIA ABOUT THE CENTER OF MASS
                           I(XX)               I(YY)               I(ZZ)

                       8962175.          3.6520029E+07      3.6519866E+07


                    PRODUCTS OF INERTIA ABOUT THE CENTER OF MASS
                           I(XY)               I(XZ)               I(YZ)

                     -2.4088451E-09      3.1414488E-10     -1.1572234E-03
  
                   M E M O R Y   E S T I M A T E
  
 PROCESS      FLOATING PT       MINIMUM MEMORY        MEMORY TO
              OPERATIONS           REQUIRED          MINIMIZE I/O
             PER ITERATION           (MB)               (MB)
  
     1         1.64E+010               59                291
  
 NOTE:
      (1) SINCE ABAQUS DOES NOT PRE-ALLOCATE MEMORY AND ONLY ALLOCATES MEMORY AS NEEDED DURING THE ANALYSIS,
          THE MEMORY REQUIREMENT PRINTED HERE CAN ONLY BE VIEWED AS A GENERAL GUIDELINE BASED ON THE BEST
          KNOWLEDGE AVAILABLE AT THE BEGINNING OF A STEP BEFORE THE SOLUTION PROCESS HAS BEGUN.
      (2) THE ESTIMATE IS NORMALLY UPDATED AT THE BEGINNING OF EVERY STEP. IT IS THE MAXIMUM VALUE OF THE
          ESTIMATE FROM THE CURRENT STEP TO THE LAST STEP OF THE ANALYSIS, WITH UNSYMMETRIC SOLUTION TAKEN
          INTO ACCOUNT IF APPLICABLE. 
      (3) SINCE THE ESTIMATE IS BASED ON THE ACTIVE DEGREES OF FREEDOM IN THE FIRST ITERATION OF THE 
          CURRENT STEP, THE MEMORY ESTIMATE MIGHT BE SIGNIFICANTLY DIFFERENT THAN ACTUAL USAGE FOR 
          PROBLEMS WITH SUBSTANTIAL CHANGES IN ACTIVE DEGREES OF FREEDOM BETWEEN STEPS (OR EVEN WITHIN
          THE SAME STEP). EXAMPLES ARE: PROBLEMS WITH SIGNIFICANT CONTACT CHANGES, PROBLEMS WITH MODEL
          CHANGE, PROBLEMS WITH BOTH STATIC STEP AND STEADY STATE DYNAMIC PROCEDURES WHERE ACOUSTIC 
          ELEMENTS WILL ONLY BE ACTIVATED IN THE STEADY STATE DYNAMIC STEPS.
      (4) FOR MULTI-PROCESS EXECUTION, THE ESTIMATED VALUE OF FLOATING POINT OPERATIONS FOR EACH PROCESS
          IS BASED ON AN INITIAL SCHEDULING OF OPERATIONS AND MIGHT NOT REFLECT THE ACTUAL FLOATING 
          POINT OPERATIONS COMPLETED ON EACH PROCESS. OPERATIONS ARE DYNAMICALLY BALANCED DURING EXECUTION, 
          SO THE ACTUAL BALANCE OF OPERATIONS BETWEEN PROCESSES IS EXPECTED TO BE BETTER THAN THE ESTIMATE
          PRINTED HERE.
      (5) THE UPPER LIMIT OF MEMORY THAT CAN BE ALLOCATED BY ABAQUS WILL IN GENERAL DEPEND ON THE VALUE OF
          THE "MEMORY" PARAMETER AND THE AMOUNT OF PHYSICAL MEMORY AVAILABLE ON THE MACHINE. PLEASE SEE
          THE "ABAQUS ANALYSIS USER'S MANUAL" FOR MORE DETAILS. THE ACTUAL USAGE OF MEMORY AND OF DISK
          SPACE FOR SCRATCH DATA WILL DEPEND ON THIS UPPER LIMIT AS WELL AS THE MEMORY REQUIRED TO MINIMIZE
          I/O. IF THE MEMORY UPPER LIMIT IS GREATER THAN THE MEMORY REQUIRED TO MINIMIZE I/O, THEN THE ACTUAL
          MEMORY USAGE WILL BE CLOSE TO THE ESTIMATED "MEMORY TO MINIMIZE I/O" VALUE, AND THE SCRATCH DISK
          USAGE WILL BE CLOSE-TO-ZERO; OTHERWISE, THE ACTUAL MEMORY USED WILL BE CLOSE TO THE PREVIOUSLY
          MENTIONED MEMORY LIMIT, AND THE SCRATCH DISK USAGE WILL BE ROUGHLY PROPORTIONAL TO THE DIFFERENCE
          BETWEEN THE ESTIMATED "MEMORY TO MINIMIZE I/O" AND THE MEMORY UPPER LIMIT. HOWEVER ACCURATE
          ESTIMATE OF THE SCRATCH DISK SPACE IS NOT POSSIBLE.
      (6) USING "*RESTART, WRITE" CAN GENERATE A LARGE AMOUNT OF DATA WRITTEN IN THE WORK DIRECTORY.


                                INCREMENT     1 SUMMARY


 TIME INCREMENT COMPLETED  2.220E-16,  FRACTION OF STEP COMPLETED   1.00    
 STEP TIME COMPLETED       2.220E-16,  TOTAL TIME COMPLETED         0.00    




               O U T P U T   F O R   L O A D   C A S E  FX                                                                              





               O U T P U T   F O R   L O A D   C A S E  FX                                                                              





               O U T P U T   F O R   L O A D   C A S E  FZ                                                                              





               O U T P U T   F O R   L O A D   C A S E  GRAVITY                                                                         





               O U T P U T   F O R   L O A D   C A S E  FX                                                                              

  
  
  
  
                                       N O D E   O U T P U T
  
  
  
  
   THE FOLLOWING TABLE IS PRINTED FOR NODES BELONGING TO NODE SET FAN CASING
  
       NODE FOOT-   U1          U2          U3          UR1         UR2         UR3         COOR1       COOR2       COOR3    
            NOTE
  
          5      -2.283     -5.0644E-06  1.8060E-02  6.6190E-07  1.1647E-05  1.5450E-07   762.5       226.0      -1821.     
          6      -2.283     -9.6065E-10  1.7998E-02  2.6257E-12  9.3823E-06  9.4063E-13   762.5     -2.0574E-13  -1835.     
          8      -2.283     -1.2629E-05  1.8114E-02  8.0501E-07  9.4420E-06 -1.5861E-07   762.5       287.1      -1812.     
         11      -2.230     -5.0644E-07  2.3640E-02  6.2438E-08  1.7945E-05 -1.5861E-07   762.5      -226.0       1821.     
         12      -2.230      1.2975E-06  2.3627E-02  6.9489E-08  2.0140E-05  1.5310E-07   762.5      -287.1       1812.     
         23      -2.280      4.9318E-04  1.9271E-02 -2.4638E-06  1.0792E-05  1.0064E-07   762.5      -975.6      -1554.     
         24      -2.279      6.7617E-04  1.9541E-02 -2.7363E-06  1.1082E-05 -2.4374E-08   762.5      -1079.      -1485.     
         26      -2.281      3.0292E-04  1.8937E-02 -2.1713E-06  1.0401E-05  1.8283E-07   762.5      -833.1      -1635.     
         32      -2.235     -1.3906E-04  2.3335E-02 -1.0382E-06  1.8158E-05  1.6202E-07   762.5       975.6       1554.     
         33      -2.236     -2.2502E-04  2.3209E-02 -1.4010E-06  1.7745E-05  3.6969E-07   762.5       1079.       1485.     
         40      -2.281      2.4038E-04  1.8809E-02 -2.0665E-06  1.2257E-05 -7.1903E-07   762.5      -776.7      -1663.     
         42      -2.282      9.4651E-05  1.8442E-02 -1.5505E-06  9.8394E-06  2.4464E-07   762.5      -567.0      -1745.     
         48      -2.233     -4.4188E-05  2.3507E-02 -6.0469E-07  1.6922E-05  8.5573E-07   762.5       776.7       1663.     
         49      -2.234     -6.6590E-05  2.3461E-02 -7.1362E-07  1.8716E-05 -1.5776E-08   762.5       833.1       1635.     
         56      -2.283      5.0624E-06  1.8060E-02 -6.6190E-07  1.1647E-05 -1.5450E-07   762.5      -226.0      -1821.     
         57      -2.283      1.2627E-05  1.8114E-02 -8.0500E-07  9.4419E-06  1.5861E-07   762.5      -287.1      -1812.     
         64      -2.230      5.0895E-07  2.3640E-02 -6.2433E-08  1.7945E-05  1.5860E-07   762.5       226.0       1821.     
         65      -2.230     -1.2950E-06  2.3627E-02 -6.9483E-08  2.0140E-05 -1.5310E-07   762.5       287.1       1812.     
         67      -2.230      1.2142E-09  2.3634E-02  2.6082E-12  2.0268E-05 -1.0639E-12   762.5      1.8982E-14   1835.     
         73      -2.233      4.4191E-05  2.3507E-02  6.0469E-07  1.6922E-05 -8.5573E-07   762.5      -776.7       1663.     
         74      -2.232      1.2441E-05  2.3586E-02  2.9282E-07  1.9552E-05  1.9234E-07   762.5      -567.0       1745.     
         81      -2.281     -2.4038E-04  1.8809E-02  2.0665E-06  1.2257E-05  7.1903E-07   762.5       776.7      -1663.     
         82      -2.282     -9.4653E-05  1.8442E-02  1.5505E-06  9.8394E-06 -2.4464E-07   762.5       567.0      -1745.     
         84      -2.281     -3.0293E-04  1.8937E-02  2.1713E-06  1.0401E-05 -1.8283E-07   762.5       833.1      -1635.     
         90      -2.280     -4.9319E-04  1.9271E-02  2.4638E-06  1.0792E-05 -1.0064E-07   762.5       975.6      -1554.     
         96      -2.235      1.3906E-04  2.3335E-02  1.0382E-06  1.8158E-05 -1.6202E-07   762.5      -975.6       1554.     
         97      -2.234      6.6594E-05  2.3461E-02  7.1362E-07  1.8716E-05  1.5774E-08   762.5      -833.1       1635.     
         99      -2.236      2.2502E-04  2.3209E-02  1.4010E-06  1.7745E-05 -3.6970E-07   762.5      -1079.       1485.     
        107      -2.265      3.4412E-03  2.1486E-02 -5.0819E-07  1.4122E-05 -3.0985E-06   762.5      -1812.      -287.1     
        108      -2.268      3.1419E-03  2.1411E-02 -1.6259E-06  1.3810E-05 -2.5489E-06   762.5      -1745.      -567.0     
        116      -2.256     -3.0724E-03  2.1518E-02 -1.7026E-06  1.4500E-05  3.3712E-06   762.5       1812.       287.1     
        117      -2.252     -2.4823E-03  2.1662E-02 -2.4601E-06  1.4759E-05  3.0482E-06   762.5       1745.       567.0     
        123      -2.272      2.5868E-03  2.1178E-02 -2.5220E-06  1.3330E-05 -1.8463E-06   762.5      -1635.      -833.1     
        127      -2.248     -1.7729E-03  2.1957E-02 -2.8123E-06  1.5183E-05  2.4812E-06   762.5       1635.       833.1     
        131      -2.275      1.8989E-03  2.0755E-02 -3.0385E-06  1.2686E-05 -1.1270E-06   762.5      -1485.      -1079.     
        135      -2.244     -1.0900E-03  2.2374E-02 -2.6944E-06  1.5822E-05  1.7730E-06   762.5       1485.       1079.     
        139      -2.277      1.2237E-03  2.0179E-02 -3.0902E-06  1.1921E-05 -4.9809E-07   762.5      -1298.      -1298.     
        143      -2.240     -5.5632E-04  2.2826E-02 -2.1567E-06  1.6686E-05  1.0303E-06   762.5       1298.       1298.     
        150      -2.232     -1.2438E-05  2.3586E-02 -2.9282E-07  1.9552E-05 -1.9235E-07   762.5       567.0       1745.     
        159      -2.261     -3.4168E-03  2.1488E-02 -6.5991E-07  1.4322E-05  3.3894E-06   762.5       1835.     -6.5672E-14 
        160      -2.279     -6.7617E-04  1.9541E-02  2.7363E-06  1.1082E-05  2.4377E-08   762.5       1079.      -1485.     
        165      -2.277     -1.2237E-03  2.0179E-02  3.0902E-06  1.1921E-05  4.9809E-07   762.5       1298.      -1298.     
        169      -2.240      5.5632E-04  2.2826E-02  2.1567E-06  1.6686E-05 -1.0304E-06   762.5      -1298.       1298.     
        173      -2.275     -1.8989E-03  2.0755E-02  3.0385E-06  1.2686E-05  1.1270E-06   762.5       1485.      -1079.     
        177      -2.244      1.0900E-03  2.2374E-02  2.6944E-06  1.5822E-05 -1.7730E-06   762.5      -1485.       1079.     
        181      -2.272     -2.5868E-03  2.1178E-02  2.5220E-06  1.3330E-05  1.8463E-06   762.5       1635.      -833.1     
        185      -2.248      1.7729E-03  2.1957E-02  2.8123E-06  1.5183E-05 -2.4812E-06   762.5      -1635.       833.1     
        189      -2.252      2.4823E-03  2.1662E-02  2.4601E-06  1.4759E-05 -3.0482E-06   762.5      -1745.       567.0     
        193      -2.268     -3.1419E-03  2.1411E-02  1.6259E-06  1.3810E-05  2.5489E-06   762.5       1745.      -567.0     
        197      -2.256      3.0724E-03  2.1518E-02  1.7026E-06  1.4500E-05 -3.3712E-06   762.5      -1812.       287.1     
        200      -2.265     -3.4412E-03  2.1486E-02  5.0819E-07  1.4122E-05  3.0985E-06   762.5       1812.      -287.1     
        207      -2.261      3.4168E-03  2.1488E-02  6.5991E-07  1.4322E-05 -3.3894E-06   762.5      -1835.      1.5905E-13 
        232      -2.283     -1.9770E-06  1.8030E-02  4.0277E-07  9.3952E-06 -8.8051E-08   762.5       150.9      -1829.     
        233      -2.283      6.5505E-08  1.7996E-02  2.2564E-07  1.1558E-05  4.5388E-08   762.5       75.51      -1833.     
        344      -2.280      5.7450E-04  1.9396E-02 -2.6460E-06  1.2863E-05 -1.2638E-06   762.5      -1028.      -1520.     
        369      -2.280      3.8610E-04  1.9092E-02 -2.3763E-06  1.2526E-05 -9.4786E-07   762.5      -905.2      -1596.     
        401      -2.236     -1.7229E-04  2.3284E-02 -1.2388E-06  1.6027E-05  1.5649E-06   762.5       1028.       1520.     
        479      -2.282      1.8459E-04  1.8683E-02 -1.8757E-06  1.0120E-05  2.3637E-07   762.5      -708.0      -1693.     
        480      -2.282      1.3155E-04  1.8548E-02 -1.7055E-06  1.2016E-05 -5.1096E-07   762.5      -638.0      -1721.     
        639      -2.230     -3.2813E-07  2.3632E-02 -2.0491E-09  2.0236E-05 -8.7953E-08   762.5       150.9       1829.     
        640      -2.230      2.7006E-07  2.3644E-02 -1.9773E-08  1.8069E-05  4.5780E-08   762.5       75.51       1833.     
        675      -2.233      3.1972E-05  2.3535E-02  4.7189E-07  1.9135E-05  1.3349E-07   762.5      -708.0       1693.     
        676      -2.232      1.7016E-05  2.3573E-02  3.4535E-07  1.7304E-05 -5.8793E-07   762.5      -638.0       1721.     
[...]
       6808      3.7600E-06 -8.3745E-09 -1.8442E-06 -2.4946E-11 -2.9337E-09  3.7000E-10   4506.      -427.8      -427.8     
       6865      3.8911E-06 -8.4153E-09 -1.8477E-06 -2.9543E-11 -3.0496E-09  3.6118E-10   4506.      -355.6      -489.5     
       6915      4.0716E-06 -4.9594E-09 -1.8510E-06 -8.9861E-12 -3.2311E-09  2.4438E-10   4506.      -187.0      -575.4     
       6989      4.0718E-06 -4.9754E-09 -1.8511E-06 -8.7112E-12 -3.2338E-09  2.0421E-10   4506.      -186.6      -575.5     
       7002      4.1179E-06 -2.4868E-09 -1.8512E-06 -1.0994E-12 -3.2753E-09  1.2411E-10   4506.      -94.64      -597.6     
       7087      4.1335E-06 -7.2364E-14 -1.8513E-06 -6.0574E-17 -3.2945E-09   0.000       4506.     -3.7046E-14  -605.0     
       7088      4.1239E-06 -1.9908E-09 -1.8513E-06  1.4402E-12 -3.2813E-09  8.7337E-11   4506.      -74.52      -600.4     
       7143      4.1179E-06  2.4867E-09 -1.8512E-06  1.0993E-12 -3.2753E-09 -1.2411E-10   4506.       94.64      -597.6     
       7144      4.1239E-06  1.9906E-09 -1.8513E-06 -1.4403E-12 -3.2813E-09 -8.7337E-11   4506.       74.52      -600.4     
       7323      1.3501E-06 -3.3110E-07 -1.5461E-06  2.4208E-09 -2.5888E-09  1.2429E-09   4506.      -355.6       489.5     
       7401      1.6186E-06 -2.6302E-07 -1.6344E-06  2.5012E-09 -2.4713E-09  1.0879E-09   4506.      -427.8       427.8     
       7457      1.8690E-06 -1.3262E-07 -1.7454E-06  2.4203E-09 -2.6645E-09  5.9270E-10   4506.      -489.5       355.6     
       7485      2.1061E-06 -7.7386E-09 -1.8226E-06  1.4037E-09 -2.8950E-09 -5.3138E-11   4506.      -539.1       274.7     
       7540      2.3394E-06  4.0692E-08 -1.8449E-06  2.4521E-10 -2.9075E-09 -3.7346E-10   4506.      -575.4       187.0     
       7620      2.5728E-06  2.0870E-08 -1.8426E-06 -2.8462E-10 -2.7900E-09 -2.5134E-10   4506.      -597.6       94.64     
       7724      4.0718E-06  4.9752E-09 -1.8511E-06  8.7111E-12 -3.2338E-09 -2.0421E-10   4506.       186.6      -575.5     
       7726      3.9392E-06 -8.1695E-09 -1.8490E-06 -1.3521E-11 -3.0944E-09  3.3819E-10   4506.      -321.6      -512.4     
       7847      3.8283E-06  8.5120E-09 -1.8459E-06  2.8625E-11 -2.9927E-09 -3.7019E-10   4506.       392.9      -460.0     
       7849      3.6849E-06  8.4252E-09 -1.8427E-06  1.6060E-11 -2.8848E-09 -3.7111E-10   4506.       460.0      -392.9     
       7853      3.5191E-06  1.0784E-08 -1.8419E-06 -3.7265E-11 -2.8001E-09 -3.5825E-10   4506.       515.8      -316.1     
       7855      3.3337E-06  1.8211E-08 -1.8437E-06 -8.6142E-11 -2.7489E-09 -3.5277E-10   4506.       558.9      -231.5     
       7859      3.1312E-06  2.6964E-08 -1.8449E-06 -2.9869E-11 -2.7183E-09 -3.3354E-10   4506.       588.3      -141.2     
       7861      2.9145E-06  2.3848E-08 -1.8430E-06  1.9972E-10 -2.7023E-09 -2.2974E-10   4506.       603.1      -47.47     
       7865      2.6871E-06 -2.3748E-09 -1.8414E-06  4.6744E-10 -2.7282E-09 -8.7818E-12   4506.       603.1       47.47     
       7869      2.4540E-06 -3.6125E-08 -1.8447E-06  3.9103E-10 -2.8057E-09  1.7620E-10   4506.       588.3       141.2     
       7871      2.2200E-06 -2.7526E-08 -1.8393E-06 -3.0539E-10 -2.8157E-09  1.1563E-11   4506.       558.9       231.5     
       7875      1.9851E-06  6.3271E-08 -1.7915E-06 -1.1866E-09 -2.5704E-09 -6.1820E-10   4506.       515.8       316.1     
       7877      1.7416E-06  2.0233E-07 -1.6910E-06 -1.1592E-09 -2.1391E-09 -1.3403E-09   4506.       460.0       392.9     
       7881      1.4807E-06  3.0420E-07 -1.5875E-06  9.0249E-11 -1.8757E-09 -1.7079E-09   4506.       392.9       460.0     
       7885      9.1249E-07  3.2581E-07 -1.4782E-06 -4.1270E-09 -3.9366E-09 -9.6150E-10   4506.       221.9       562.8     
       7891      6.9633E-07  2.0661E-07 -1.7221E-06 -6.4521E-10 -6.6564E-09 -2.7619E-10   4506.       141.1       588.3     
       7897      5.0895E-07  3.7715E-08 -2.2948E-06  3.8787E-09 -1.0982E-08  1.1719E-10   4506.       37.33       603.8     
       7901      5.0895E-07 -3.7715E-08 -2.2948E-06 -3.8787E-09 -1.0982E-08 -1.1719E-10   4506.      -37.33       603.8     
       7907      6.9633E-07 -2.0661E-07 -1.7221E-06  6.4521E-10 -6.6564E-09  2.7619E-10   4506.      -141.1       588.3     
       7913      9.1249E-07 -3.2581E-07 -1.4782E-06  4.1270E-09 -3.9366E-09  9.6150E-10   4506.      -221.9       562.8     
       8166      4.0455E-06  5.9966E-09 -1.8508E-06 -1.3749E-11 -3.2058E-09 -2.6042E-10   4506.       221.9      -562.8     
       8572      2.9145E-06 -2.3848E-08 -1.8430E-06 -1.9972E-10 -2.7023E-09  2.2974E-10   4506.      -603.1      -47.47     
       8695      3.1312E-06 -2.6964E-08 -1.8449E-06  2.9869E-11 -2.7183E-09  3.3354E-10   4506.      -588.3      -141.2     
       8783      3.3337E-06 -1.8211E-08 -1.8437E-06  8.6142E-11 -2.7489E-09  3.5277E-10   4506.      -558.9      -231.5     
       8914      3.5191E-06 -1.0784E-08 -1.8419E-06  3.7265E-11 -2.8001E-09  3.5825E-10   4506.      -515.8      -316.1     
       9002      3.6849E-06 -8.4253E-09 -1.8427E-06 -1.6060E-11 -2.8848E-09  3.7111E-10   4506.      -460.0      -392.9     
       9086      3.8283E-06 -8.5122E-09 -1.8459E-06 -2.8625E-11 -2.9927E-09  3.7019E-10   4506.      -392.9      -460.0     
       9161      4.0455E-06 -5.9967E-09 -1.8508E-06  1.3749E-11 -3.2058E-09  2.6042E-10   4506.      -221.9      -562.8     
       9223      4.0988E-06 -3.8372E-09 -1.8512E-06  1.3704E-11 -3.2583E-09  1.7218E-10   4506.      -141.1      -588.3     
       9331      4.1310E-06 -9.9236E-10 -1.8513E-06  3.7265E-12 -3.2900E-09  4.6595E-11   4506.      -37.33      -603.8     
       9626      1.4807E-06 -3.0420E-07 -1.5875E-06 -9.0250E-11 -1.8757E-09  1.7079E-09   4506.      -392.9       460.0     
       9714      1.7416E-06 -2.0233E-07 -1.6910E-06  1.1592E-09 -2.1391E-09  1.3403E-09   4506.      -460.0       392.9     
       9756      1.9851E-06 -6.3271E-08 -1.7915E-06  1.1866E-09 -2.5704E-09  6.1820E-10   4506.      -515.8       316.1     
       9844      2.2200E-06  2.7526E-08 -1.8393E-06  3.0538E-10 -2.8157E-09 -1.1563E-11   4506.      -558.9       231.5     
       9968      2.4540E-06  3.6125E-08 -1.8447E-06 -3.9103E-10 -2.8057E-09 -1.7620E-10   4506.      -588.3       141.2     
      10035      2.6871E-06  2.3748E-09 -1.8414E-06 -4.6744E-10 -2.7282E-09  8.7818E-12   4506.      -603.1       47.47     
      10126      4.1310E-06  9.9222E-10 -1.8513E-06 -3.7266E-12 -3.2900E-09 -4.6595E-11   4506.       37.33      -603.8     
      10175      4.0988E-06  3.8371E-09 -1.8512E-06 -1.3704E-11 -3.2583E-09 -1.7218E-10   4506.       141.1      -588.3     

 MAXIMUM         4.1335E-06  3.4703E-07 -1.4779E-06  1.1814E-08 -1.8757E-09  1.7533E-09   4506.       605.0       605.0    
 AT NODE              7087        5680        5724        5696        7881        5731        5621        5648        5704

 MINIMUM         5.0895E-07 -3.4703E-07 -2.3614E-06 -1.1814E-08 -1.0982E-08 -1.7533E-09   4506.      -605.0      -605.0    
 AT NODE              7897        5728        5704        5712        7901        5676        5621        6498        7087
  
  
  
   THE FOLLOWING TABLE IS PRINTED FOR NODES BELONGING TO NODE SET IPT4 CENTER
  
       NODE FOOT-   U1          U2          U3          UR1         UR2         UR3         COOR1       COOR2       COOR3    
            NOTE
  
       4804      3.2748E-06 -3.5693E-14 -1.4461E-06 -6.0664E-17 -1.0785E-09   0.000       4506.      2.7593E-13   0.000     

 MAXIMUM         3.2748E-06 -3.5693E-14 -1.4461E-06 -6.0664E-17 -1.0785E-09   0.000       4506.      2.7593E-13   0.000    
 AT NODE              4804        4804        4804        4804        4804        4804        4804        4804        4804

 MINIMUM         3.2748E-06 -3.5693E-14 -1.4461E-06 -6.0664E-17 -1.0785E-09   0.000       4506.      2.7593E-13   0.000    
 AT NODE              4804        4804        4804        4804        4804        4804        4804        4804        4804
  
  
  
   THE FOLLOWING TABLE IS PRINTED FOR NODES BELONGING TO NODE SET INTERFACE
  
       NODE FOOT-   U1          U2          U3          UR1         UR2         UR3         COOR1       COOR2       COOR3    
            NOTE
  
       5583       0.000       0.000       0.000       0.000       0.000       0.000       4692.       74.52       600.4     
       5587       0.000       0.000       0.000       0.000       0.000       0.000       4692.      3.7046E-14   605.0     
       5591       0.000       0.000       0.000       0.000       0.000       0.000       4692.      -74.52       600.4     
       6470       0.000       0.000       0.000       0.000       0.000       0.000       1963.       92.38       744.3     
       6471       0.000       0.000       0.000       0.000       0.000       0.000       1940.       82.19       662.2     
       6474       0.000       0.000       0.000       0.000       0.000       0.000       1963.      4.5924E-14   750.0     
       6475       0.000       0.000       0.000       0.000       0.000       0.000       1940.      4.0860E-14   667.3     
       6478       0.000       0.000       0.000       0.000       0.000       0.000       1963.      -92.38       744.3     
       6479       0.000       0.000       0.000       0.000       0.000       0.000       1940.      -82.19       662.2     
       7077       0.000       0.000       0.000       0.000       0.000       0.000       2138.       74.52       600.4     
       7084       0.000       0.000       0.000       0.000       0.000       0.000       2017.       115.6       931.5     
       7199       0.000       0.000       0.000       0.000       0.000       0.000       4848.      -74.52       600.4     
       7200       0.000       0.000       0.000       0.000       0.000       0.000       4975.      -74.52       600.4     
       7234       0.000       0.000       0.000       0.000       0.000       0.000       2645.      -74.52       600.4     
       7235       0.000       0.000       0.000       0.000       0.000       0.000       2017.      -115.6       931.5     
       7238       0.000       0.000       0.000       0.000       0.000       0.000       2570.      -74.52       600.4     
       7246       0.000       0.000       0.000       0.000       0.000       0.000       2138.      -74.52       600.4     
       7248       0.000       0.000       0.000       0.000       0.000       0.000       2496.      -74.52       600.4     
       7252       0.000       0.000       0.000       0.000       0.000       0.000       2245.      -74.52       600.4     
       7653       0.000       0.000       0.000       0.000       0.000       0.000       4975.       74.52       600.4     
       7654       0.000       0.000       0.000       0.000       0.000       0.000       4848.       74.52       600.4     
       7671       0.000       0.000       0.000       0.000       0.000       0.000       2645.       74.52       600.4     
       7673       0.000       0.000       0.000       0.000       0.000       0.000       2570.       74.52       600.4     
       7676       0.000       0.000       0.000       0.000       0.000       0.000       2138.      3.7046E-14   605.0     
       7678       0.000       0.000       0.000       0.000       0.000       0.000       2496.       74.52       600.4     
       7679       0.000       0.000       0.000       0.000       0.000       0.000       2181.       74.52       600.4     
       7680       0.000       0.000       0.000       0.000       0.000       0.000       2181.      3.7046E-14   605.0     
       7681       0.000       0.000       0.000       0.000       0.000       0.000       2245.       74.52       600.4     
       7682       0.000       0.000       0.000       0.000       0.000       0.000       2245.      3.7046E-14   605.0     
       7683       0.000       0.000       0.000       0.000       0.000       0.000       4848.      3.7046E-14   605.0     
       7684       0.000       0.000       0.000       0.000       0.000       0.000       4975.      3.7046E-14   605.0     
       7700       0.000       0.000       0.000       0.000       0.000       0.000       2645.      3.7046E-14   605.0     
       7701       0.000       0.000       0.000       0.000       0.000       0.000       2570.      3.7046E-14   605.0     
       7703       0.000       0.000       0.000       0.000       0.000       0.000       2496.      3.7046E-14   605.0     
       7704       0.000       0.000       0.000       0.000       0.000       0.000       2181.      -74.52       600.4     
       7706       0.000       0.000       0.000       0.000       0.000       0.000       2017.      5.7473E-14   938.6     
       7816       0.000       0.000       0.000       0.000       0.000       0.000       4692.       37.33       603.8     
       7821       0.000       0.000       0.000       0.000       0.000       0.000       4692.      -37.33       603.8     
       8547       0.000       0.000       0.000       0.000       0.000       0.000       1940.       41.18       666.0     
       8548       0.000       0.000       0.000       0.000       0.000       0.000       1963.       46.28       748.6     
       8552       0.000       0.000       0.000       0.000       0.000       0.000       1940.      -41.18       666.0     
       8553       0.000       0.000       0.000       0.000       0.000       0.000       1963.      -46.28       748.6     
       9327       0.000       0.000       0.000       0.000       0.000       0.000       1990.       104.0       837.9     
       9436       0.000       0.000       0.000       0.000       0.000       0.000       4911.      -74.52       600.4     
       9437       0.000       0.000       0.000       0.000       0.000       0.000       4770.      -74.52       600.4     
       9451       0.000       0.000       0.000       0.000       0.000       0.000       1990.      -104.0       837.9     
       9468       0.000       0.000       0.000       0.000       0.000       0.000       2329.      -74.52       600.4     
       9469       0.000       0.000       0.000       0.000       0.000       0.000       2412.      -74.52       600.4     
      10062       0.000       0.000       0.000       0.000       0.000       0.000       4911.       74.52       600.4     
      10063       0.000       0.000       0.000       0.000       0.000       0.000       4770.       74.52       600.4     
      10076       0.000       0.000       0.000       0.000       0.000       0.000       2138.       37.33       603.8     
      10080       0.000       0.000       0.000       0.000       0.000       0.000       2181.       37.33       603.8     
      10081       0.000       0.000       0.000       0.000       0.000       0.000       2412.       74.52       600.4     
      10082       0.000       0.000       0.000       0.000       0.000       0.000       2329.       74.52       600.4     
      10083       0.000       0.000       0.000       0.000       0.000       0.000       2245.       37.33       603.8     
      10084       0.000       0.000       0.000       0.000       0.000       0.000       4848.      -37.33       603.8     
      10085       0.000       0.000       0.000       0.000       0.000       0.000       4911.      3.7046E-14   605.0     
      10086       0.000       0.000       0.000       0.000       0.000       0.000       4975.      -37.33       603.8     
      10087       0.000       0.000       0.000       0.000       0.000       0.000       4770.      3.7046E-14   605.0     
      10109       0.000       0.000       0.000       0.000       0.000       0.000       2645.      -37.33       603.8     
      10110       0.000       0.000       0.000       0.000       0.000       0.000       2570.      -37.33       603.8     
      10112       0.000       0.000       0.000       0.000       0.000       0.000       2496.      -37.33       603.8     
      10113       0.000       0.000       0.000       0.000       0.000       0.000       2245.      -37.33       603.8     
      10114       0.000       0.000       0.000       0.000       0.000       0.000       2329.      3.7046E-14   605.0     
      10115       0.000       0.000       0.000       0.000       0.000       0.000       2412.      3.7046E-14   605.0     
      10116       0.000       0.000       0.000       0.000       0.000       0.000       2181.      -37.33       603.8     
      10117       0.000       0.000       0.000       0.000       0.000       0.000       2138.      -37.33       603.8     
      10121       0.000       0.000       0.000       0.000       0.000       0.000       1990.      5.1699E-14   844.3     
      10122       0.000       0.000       0.000       0.000       0.000       0.000       2017.      -57.92       936.8     
      10216       0.000       0.000       0.000       0.000       0.000       0.000       4975.       37.33       603.8     
      10217       0.000       0.000       0.000       0.000       0.000       0.000       4848.       37.33       603.8     
      10233       0.000       0.000       0.000       0.000       0.000       0.000       2645.       37.33       603.8     
      10234       0.000       0.000       0.000       0.000       0.000       0.000       2017.       57.92       936.8     
      10236       0.000       0.000       0.000       0.000       0.000       0.000       2496.       37.33       603.8     
      10240       0.000       0.000       0.000       0.000       0.000       0.000       2570.       37.33       603.8     
      10848       0.000       0.000       0.000       0.000       0.000       0.000       4911.      -37.33       603.8     
      10849       0.000       0.000       0.000       0.000       0.000       0.000       4770.      -37.33       603.8     
      10856       0.000       0.000       0.000       0.000       0.000       0.000       2412.      -37.33       603.8     
      10857       0.000       0.000       0.000       0.000       0.000       0.000       2329.      -37.33       603.8     
      10859       0.000       0.000       0.000       0.000       0.000       0.000       1990.      -52.10       842.7     
      10912       0.000       0.000       0.000       0.000       0.000       0.000       4911.       37.33       603.8     
      10913       0.000       0.000       0.000       0.000       0.000       0.000       4770.       37.33       603.8     
      10920       0.000       0.000       0.000       0.000       0.000       0.000       1990.       52.10       842.7     
      10921       0.000       0.000       0.000       0.000       0.000       0.000       2329.       37.33       603.8     
      10922       0.000       0.000       0.000       0.000       0.000       0.000       2412.       37.33       603.8     

 MAXIMUM          0.000       0.000       0.000       0.000       0.000       0.000       4975.       115.6       938.6    
 AT NODE              5583        5583        5583        5583        5583        5583        7200        7084        7706

 MINIMUM          0.000       0.000       0.000       0.000       0.000       0.000       1940.      -115.6       600.4    
 AT NODE              5583        5583        5583        5583        5583        5583        6471        7235        5583


          THE ANALYSIS HAS BEEN COMPLETED



                              ANALYSIS COMPLETE
                              WITH     55 WARNING MESSAGES ON THE DAT FILE



     JOB TIME SUMMARY
       USER TIME (SEC)      =   2.2000    
       SYSTEM TIME (SEC)    =  0.10000    
       TOTAL CPU TIME (SEC) =   2.3000    
       WALLCLOCK TIME (SEC) =          4
